<?xml version="1.0" encoding="UTF-8"?>

<!-- generated on Wed Feb  7 18:06:10 2018 by SUMO duarouter Version 0.30.0
<?xml version="1.0" encoding="UTF-8"?>

<configuration xmlns:xsi="http://www.w3.org/2001/XMLSchema-instance" xsi:noNamespaceSchemaLocation="http://sumo.dlr.de/xsd/duarouterConfiguration.xsd">

    <input>
        <net-file value="ito.net.xml"/>
        <trip-files value="h27_flow_data_test.xml"/>
    </input>

    <output>
        <output-file value="h27_flow_data_test.rou.xml"/>
    </output>

</configuration>
-->

<routes xmlns:xsi="http://www.w3.org/2001/XMLSchema-instance" xsi:noNamespaceSchemaLocation="http://sumo.dlr.de/xsd/routes_file.xsd">
    <vehicle id="7_1.0" depart="0.00">
        <route edges="67209975 191353111#1 191353111#2 191353111#3 191353111#4 191353111#5 191353111#6 84515125#1 84515125#3 84515125#4 84515125#5 84515125#6 84515126"/>
    </vehicle>
    <vehicle id="7_2.0" depart="0.00" color="255,166,0">
        <route edges="-84515126 -84515125#6 -84515125#5 -84515125#4 -84515125#3 -84515125#2 264120321#1 264120321#2 264120321#3 264120321#4 264120321#5 264120321#6 264120321#7 264120321#8 420910011#1"/>
    </vehicle>
    <vehicle id="7_3.0" depart="0.00" color="cyan">
        <route edges="61843390#0 61843390#1 304525875#1 304525875#2 304525875#3 304525875#4 -17444 264120321#1 264120321#2 264120321#3 264120321#4 264120321#5 264120321#6 264120321#7 264120321#8 420910011#1"/>
    </vehicle>
    <vehicle id="7_4.0" depart="0.00" color="255,166,0">
        <route edges="161947715#1 161947715#2 -84515125#10 -84515125#9 -84515125#8 -84515125#7 -84515125#6 -84515125#5 -84515125#4 -84515125#3 -84515125#2 264120321#1 264120321#2 264120321#3 264120321#4 264120321#5 264120321#6 264120321#7 264120321#8 420910011#1"/>
    </vehicle>
    <vehicle id="7_5.0" depart="0.00" color="255,166,0">
        <route edges="223785629 84515125#22 84515125#23 84515125#24 84515125#25 304525875#2 304525875#3 304525875#4 -17444 264120321#1 264120321#2 264120321#3 264120321#4 264120321#5 264120321#6 264120321#7 264120321#8 420910011#1"/>
    </vehicle>
    <vehicle id="7_1.1" depart="12.37">
        <route edges="67209975 191353111#1 191353111#2 191353111#3 191353111#4 191353111#5 191353111#6 84515125#1 84515125#3 84515125#4 84515125#5 84515125#6 84515126"/>
    </vehicle>
    <vehicle id="7_1.2" depart="24.74">
        <route edges="67209975 191353111#1 191353111#2 191353111#3 191353111#4 191353111#5 191353111#6 84515125#1 84515125#3 84515125#4 84515125#5 84515125#6 84515126"/>
    </vehicle>
    <vehicle id="7_3.1" depart="26.47" color="cyan">
        <route edges="61843390#0 61843390#1 304525875#1 304525875#2 304525875#3 304525875#4 -17444 264120321#1 264120321#2 264120321#3 264120321#4 264120321#5 264120321#6 264120321#7 264120321#8 420910011#1"/>
    </vehicle>
    <vehicle id="7_1.3" depart="37.11">
        <route edges="67209975 191353111#1 191353111#2 191353111#3 191353111#4 191353111#5 191353111#6 84515125#1 84515125#3 84515125#4 84515125#5 84515125#6 84515126"/>
    </vehicle>
    <vehicle id="7_1.4" depart="49.48">
        <route edges="67209975 191353111#1 191353111#2 191353111#3 191353111#4 191353111#5 191353111#6 84515125#1 84515125#3 84515125#4 84515125#5 84515125#6 84515126"/>
    </vehicle>
    <vehicle id="7_3.2" depart="52.94" color="cyan">
        <route edges="61843390#0 61843390#1 304525875#1 304525875#2 304525875#3 304525875#4 -17444 264120321#1 264120321#2 264120321#3 264120321#4 264120321#5 264120321#6 264120321#7 264120321#8 420910011#1"/>
    </vehicle>
    <vehicle id="7_1.5" depart="61.85">
        <route edges="67209975 191353111#1 191353111#2 191353111#3 191353111#4 191353111#5 191353111#6 84515125#1 84515125#3 84515125#4 84515125#5 84515125#6 84515126"/>
    </vehicle>
    <vehicle id="7_1.6" depart="74.23">
        <route edges="67209975 191353111#1 191353111#2 191353111#3 191353111#4 191353111#5 191353111#6 84515125#1 84515125#3 84515125#4 84515125#5 84515125#6 84515126"/>
    </vehicle>
    <vehicle id="7_3.3" depart="79.41" color="cyan">
        <route edges="61843390#0 61843390#1 304525875#1 304525875#2 304525875#3 304525875#4 -17444 264120321#1 264120321#2 264120321#3 264120321#4 264120321#5 264120321#6 264120321#7 264120321#8 420910011#1"/>
    </vehicle>
    <vehicle id="7_1.7" depart="86.60">
        <route edges="67209975 191353111#1 191353111#2 191353111#3 191353111#4 191353111#5 191353111#6 84515125#1 84515125#3 84515125#4 84515125#5 84515125#6 84515126"/>
    </vehicle>
    <vehicle id="7_1.8" depart="98.97">
        <route edges="67209975 191353111#1 191353111#2 191353111#3 191353111#4 191353111#5 191353111#6 84515125#1 84515125#3 84515125#4 84515125#5 84515125#6 84515126"/>
    </vehicle>
    <vehicle id="7_3.4" depart="105.88" color="cyan">
        <route edges="61843390#0 61843390#1 304525875#1 304525875#2 304525875#3 304525875#4 -17444 264120321#1 264120321#2 264120321#3 264120321#4 264120321#5 264120321#6 264120321#7 264120321#8 420910011#1"/>
    </vehicle>
    <vehicle id="7_1.9" depart="111.34">
        <route edges="67209975 191353111#1 191353111#2 191353111#3 191353111#4 191353111#5 191353111#6 84515125#1 84515125#3 84515125#4 84515125#5 84515125#6 84515126"/>
    </vehicle>
    <vehicle id="7_1.10" depart="123.71">
        <route edges="67209975 191353111#1 191353111#2 191353111#3 191353111#4 191353111#5 191353111#6 84515125#1 84515125#3 84515125#4 84515125#5 84515125#6 84515126"/>
    </vehicle>
    <vehicle id="7_3.5" depart="132.35" color="cyan">
        <route edges="61843390#0 61843390#1 304525875#1 304525875#2 304525875#3 304525875#4 -17444 264120321#1 264120321#2 264120321#3 264120321#4 264120321#5 264120321#6 264120321#7 264120321#8 420910011#1"/>
    </vehicle>
    <vehicle id="7_1.11" depart="136.08">
        <route edges="67209975 191353111#1 191353111#2 191353111#3 191353111#4 191353111#5 191353111#6 84515125#1 84515125#3 84515125#4 84515125#5 84515125#6 84515126"/>
    </vehicle>
    <vehicle id="7_1.12" depart="148.45">
        <route edges="67209975 191353111#1 191353111#2 191353111#3 191353111#4 191353111#5 191353111#6 84515125#1 84515125#3 84515125#4 84515125#5 84515125#6 84515126"/>
    </vehicle>
    <vehicle id="7_3.6" depart="158.82" color="cyan">
        <route edges="61843390#0 61843390#1 304525875#1 304525875#2 304525875#3 304525875#4 -17444 264120321#1 264120321#2 264120321#3 264120321#4 264120321#5 264120321#6 264120321#7 264120321#8 420910011#1"/>
    </vehicle>
    <vehicle id="7_1.13" depart="160.82">
        <route edges="67209975 191353111#1 191353111#2 191353111#3 191353111#4 191353111#5 191353111#6 84515125#1 84515125#3 84515125#4 84515125#5 84515125#6 84515126"/>
    </vehicle>
    <vehicle id="7_1.14" depart="173.19">
        <route edges="67209975 191353111#1 191353111#2 191353111#3 191353111#4 191353111#5 191353111#6 84515125#1 84515125#3 84515125#4 84515125#5 84515125#6 84515126"/>
    </vehicle>
    <vehicle id="7_3.7" depart="185.29" color="cyan">
        <route edges="61843390#0 61843390#1 304525875#1 304525875#2 304525875#3 304525875#4 -17444 264120321#1 264120321#2 264120321#3 264120321#4 264120321#5 264120321#6 264120321#7 264120321#8 420910011#1"/>
    </vehicle>
    <vehicle id="7_1.15" depart="185.56">
        <route edges="67209975 191353111#1 191353111#2 191353111#3 191353111#4 191353111#5 191353111#6 84515125#1 84515125#3 84515125#4 84515125#5 84515125#6 84515126"/>
    </vehicle>
    <vehicle id="7_1.16" depart="197.94">
        <route edges="67209975 191353111#1 191353111#2 191353111#3 191353111#4 191353111#5 191353111#6 84515125#1 84515125#3 84515125#4 84515125#5 84515125#6 84515126"/>
    </vehicle>
    <vehicle id="7_1.17" depart="210.31">
        <route edges="67209975 191353111#1 191353111#2 191353111#3 191353111#4 191353111#5 191353111#6 84515125#1 84515125#3 84515125#4 84515125#5 84515125#6 84515126"/>
    </vehicle>
    <vehicle id="7_3.8" depart="211.76" color="cyan">
        <route edges="61843390#0 61843390#1 304525875#1 304525875#2 304525875#3 304525875#4 -17444 264120321#1 264120321#2 264120321#3 264120321#4 264120321#5 264120321#6 264120321#7 264120321#8 420910011#1"/>
    </vehicle>
    <vehicle id="7_1.18" depart="222.68">
        <route edges="67209975 191353111#1 191353111#2 191353111#3 191353111#4 191353111#5 191353111#6 84515125#1 84515125#3 84515125#4 84515125#5 84515125#6 84515126"/>
    </vehicle>
    <vehicle id="7_1.19" depart="235.05">
        <route edges="67209975 191353111#1 191353111#2 191353111#3 191353111#4 191353111#5 191353111#6 84515125#1 84515125#3 84515125#4 84515125#5 84515125#6 84515126"/>
    </vehicle>
    <vehicle id="7_3.9" depart="238.23" color="cyan">
        <route edges="61843390#0 61843390#1 304525875#1 304525875#2 304525875#3 304525875#4 -17444 264120321#1 264120321#2 264120321#3 264120321#4 264120321#5 264120321#6 264120321#7 264120321#8 420910011#1"/>
    </vehicle>
    <vehicle id="7_2.1" depart="240.00" color="255,166,0">
        <route edges="-84515126 -84515125#6 -84515125#5 -84515125#4 -84515125#3 -84515125#2 264120321#1 264120321#2 264120321#3 264120321#4 264120321#5 264120321#6 264120321#7 264120321#8 420910011#1"/>
    </vehicle>
    <vehicle id="7_1.20" depart="247.42">
        <route edges="67209975 191353111#1 191353111#2 191353111#3 191353111#4 191353111#5 191353111#6 84515125#1 84515125#3 84515125#4 84515125#5 84515125#6 84515126"/>
    </vehicle>
    <vehicle id="7_4.1" depart="257.14" color="255,166,0">
        <route edges="161947715#1 161947715#2 -84515125#10 -84515125#9 -84515125#8 -84515125#7 -84515125#6 -84515125#5 -84515125#4 -84515125#3 -84515125#2 264120321#1 264120321#2 264120321#3 264120321#4 264120321#5 264120321#6 264120321#7 264120321#8 420910011#1"/>
    </vehicle>
    <vehicle id="7_1.21" depart="259.79">
        <route edges="67209975 191353111#1 191353111#2 191353111#3 191353111#4 191353111#5 191353111#6 84515125#1 84515125#3 84515125#4 84515125#5 84515125#6 84515126"/>
    </vehicle>
    <vehicle id="7_3.10" depart="264.70" color="cyan">
        <route edges="61843390#0 61843390#1 304525875#1 304525875#2 304525875#3 304525875#4 -17444 264120321#1 264120321#2 264120321#3 264120321#4 264120321#5 264120321#6 264120321#7 264120321#8 420910011#1"/>
    </vehicle>
    <vehicle id="7_1.22" depart="272.16">
        <route edges="67209975 191353111#1 191353111#2 191353111#3 191353111#4 191353111#5 191353111#6 84515125#1 84515125#3 84515125#4 84515125#5 84515125#6 84515126"/>
    </vehicle>
    <vehicle id="7_1.23" depart="284.53">
        <route edges="67209975 191353111#1 191353111#2 191353111#3 191353111#4 191353111#5 191353111#6 84515125#1 84515125#3 84515125#4 84515125#5 84515125#6 84515126"/>
    </vehicle>
    <vehicle id="7_3.11" depart="291.17" color="cyan">
        <route edges="61843390#0 61843390#1 304525875#1 304525875#2 304525875#3 304525875#4 -17444 264120321#1 264120321#2 264120321#3 264120321#4 264120321#5 264120321#6 264120321#7 264120321#8 420910011#1"/>
    </vehicle>
    <vehicle id="7_1.24" depart="296.90">
        <route edges="67209975 191353111#1 191353111#2 191353111#3 191353111#4 191353111#5 191353111#6 84515125#1 84515125#3 84515125#4 84515125#5 84515125#6 84515126"/>
    </vehicle>
    <vehicle id="7_1.25" depart="309.27">
        <route edges="67209975 191353111#1 191353111#2 191353111#3 191353111#4 191353111#5 191353111#6 84515125#1 84515125#3 84515125#4 84515125#5 84515125#6 84515126"/>
    </vehicle>
    <vehicle id="7_3.12" depart="317.64" color="cyan">
        <route edges="61843390#0 61843390#1 304525875#1 304525875#2 304525875#3 304525875#4 -17444 264120321#1 264120321#2 264120321#3 264120321#4 264120321#5 264120321#6 264120321#7 264120321#8 420910011#1"/>
    </vehicle>
    <vehicle id="7_1.26" depart="321.65">
        <route edges="67209975 191353111#1 191353111#2 191353111#3 191353111#4 191353111#5 191353111#6 84515125#1 84515125#3 84515125#4 84515125#5 84515125#6 84515126"/>
    </vehicle>
    <vehicle id="7_1.27" depart="334.02">
        <route edges="67209975 191353111#1 191353111#2 191353111#3 191353111#4 191353111#5 191353111#6 84515125#1 84515125#3 84515125#4 84515125#5 84515125#6 84515126"/>
    </vehicle>
    <vehicle id="7_3.13" depart="344.11" color="cyan">
        <route edges="61843390#0 61843390#1 304525875#1 304525875#2 304525875#3 304525875#4 -17444 264120321#1 264120321#2 264120321#3 264120321#4 264120321#5 264120321#6 264120321#7 264120321#8 420910011#1"/>
    </vehicle>
    <vehicle id="7_1.28" depart="346.39">
        <route edges="67209975 191353111#1 191353111#2 191353111#3 191353111#4 191353111#5 191353111#6 84515125#1 84515125#3 84515125#4 84515125#5 84515125#6 84515126"/>
    </vehicle>
    <vehicle id="7_1.29" depart="358.76">
        <route edges="67209975 191353111#1 191353111#2 191353111#3 191353111#4 191353111#5 191353111#6 84515125#1 84515125#3 84515125#4 84515125#5 84515125#6 84515126"/>
    </vehicle>
    <vehicle id="7_3.14" depart="370.58" color="cyan">
        <route edges="61843390#0 61843390#1 304525875#1 304525875#2 304525875#3 304525875#4 -17444 264120321#1 264120321#2 264120321#3 264120321#4 264120321#5 264120321#6 264120321#7 264120321#8 420910011#1"/>
    </vehicle>
    <vehicle id="7_1.30" depart="371.13">
        <route edges="67209975 191353111#1 191353111#2 191353111#3 191353111#4 191353111#5 191353111#6 84515125#1 84515125#3 84515125#4 84515125#5 84515125#6 84515126"/>
    </vehicle>
    <vehicle id="7_1.31" depart="383.50">
        <route edges="67209975 191353111#1 191353111#2 191353111#3 191353111#4 191353111#5 191353111#6 84515125#1 84515125#3 84515125#4 84515125#5 84515125#6 84515126"/>
    </vehicle>
    <vehicle id="7_1.32" depart="395.87">
        <route edges="67209975 191353111#1 191353111#2 191353111#3 191353111#4 191353111#5 191353111#6 84515125#1 84515125#3 84515125#4 84515125#5 84515125#6 84515126"/>
    </vehicle>
    <vehicle id="7_3.15" depart="397.05" color="cyan">
        <route edges="61843390#0 61843390#1 304525875#1 304525875#2 304525875#3 304525875#4 -17444 264120321#1 264120321#2 264120321#3 264120321#4 264120321#5 264120321#6 264120321#7 264120321#8 420910011#1"/>
    </vehicle>
    <vehicle id="7_1.33" depart="408.24">
        <route edges="67209975 191353111#1 191353111#2 191353111#3 191353111#4 191353111#5 191353111#6 84515125#1 84515125#3 84515125#4 84515125#5 84515125#6 84515126"/>
    </vehicle>
    <vehicle id="7_1.34" depart="420.61">
        <route edges="67209975 191353111#1 191353111#2 191353111#3 191353111#4 191353111#5 191353111#6 84515125#1 84515125#3 84515125#4 84515125#5 84515125#6 84515126"/>
    </vehicle>
    <vehicle id="7_3.16" depart="423.52" color="cyan">
        <route edges="61843390#0 61843390#1 304525875#1 304525875#2 304525875#3 304525875#4 -17444 264120321#1 264120321#2 264120321#3 264120321#4 264120321#5 264120321#6 264120321#7 264120321#8 420910011#1"/>
    </vehicle>
    <vehicle id="7_1.35" depart="432.99">
        <route edges="67209975 191353111#1 191353111#2 191353111#3 191353111#4 191353111#5 191353111#6 84515125#1 84515125#3 84515125#4 84515125#5 84515125#6 84515126"/>
    </vehicle>
    <vehicle id="7_1.36" depart="445.36">
        <route edges="67209975 191353111#1 191353111#2 191353111#3 191353111#4 191353111#5 191353111#6 84515125#1 84515125#3 84515125#4 84515125#5 84515125#6 84515126"/>
    </vehicle>
    <vehicle id="7_3.17" depart="449.99" color="cyan">
        <route edges="61843390#0 61843390#1 304525875#1 304525875#2 304525875#3 304525875#4 -17444 264120321#1 264120321#2 264120321#3 264120321#4 264120321#5 264120321#6 264120321#7 264120321#8 420910011#1"/>
    </vehicle>
    <vehicle id="7_1.37" depart="457.73">
        <route edges="67209975 191353111#1 191353111#2 191353111#3 191353111#4 191353111#5 191353111#6 84515125#1 84515125#3 84515125#4 84515125#5 84515125#6 84515126"/>
    </vehicle>
    <vehicle id="7_1.38" depart="470.10">
        <route edges="67209975 191353111#1 191353111#2 191353111#3 191353111#4 191353111#5 191353111#6 84515125#1 84515125#3 84515125#4 84515125#5 84515125#6 84515126"/>
    </vehicle>
    <vehicle id="7_3.18" depart="476.46" color="cyan">
        <route edges="61843390#0 61843390#1 304525875#1 304525875#2 304525875#3 304525875#4 -17444 264120321#1 264120321#2 264120321#3 264120321#4 264120321#5 264120321#6 264120321#7 264120321#8 420910011#1"/>
    </vehicle>
    <vehicle id="7_2.2" depart="480.00" color="255,166,0">
        <route edges="-84515126 -84515125#6 -84515125#5 -84515125#4 -84515125#3 -84515125#2 264120321#1 264120321#2 264120321#3 264120321#4 264120321#5 264120321#6 264120321#7 264120321#8 420910011#1"/>
    </vehicle>
    <vehicle id="7_1.39" depart="482.47">
        <route edges="67209975 191353111#1 191353111#2 191353111#3 191353111#4 191353111#5 191353111#6 84515125#1 84515125#3 84515125#4 84515125#5 84515125#6 84515126"/>
    </vehicle>
    <vehicle id="7_1.40" depart="494.84">
        <route edges="67209975 191353111#1 191353111#2 191353111#3 191353111#4 191353111#5 191353111#6 84515125#1 84515125#3 84515125#4 84515125#5 84515125#6 84515126"/>
    </vehicle>
    <vehicle id="7_3.19" depart="502.93" color="cyan">
        <route edges="61843390#0 61843390#1 304525875#1 304525875#2 304525875#3 304525875#4 -17444 264120321#1 264120321#2 264120321#3 264120321#4 264120321#5 264120321#6 264120321#7 264120321#8 420910011#1"/>
    </vehicle>
    <vehicle id="7_1.41" depart="507.21">
        <route edges="67209975 191353111#1 191353111#2 191353111#3 191353111#4 191353111#5 191353111#6 84515125#1 84515125#3 84515125#4 84515125#5 84515125#6 84515126"/>
    </vehicle>
    <vehicle id="7_4.2" depart="514.28" color="255,166,0">
        <route edges="161947715#1 161947715#2 -84515125#10 -84515125#9 -84515125#8 -84515125#7 -84515125#6 -84515125#5 -84515125#4 -84515125#3 -84515125#2 264120321#1 264120321#2 264120321#3 264120321#4 264120321#5 264120321#6 264120321#7 264120321#8 420910011#1"/>
    </vehicle>
    <vehicle id="7_1.42" depart="519.58">
        <route edges="67209975 191353111#1 191353111#2 191353111#3 191353111#4 191353111#5 191353111#6 84515125#1 84515125#3 84515125#4 84515125#5 84515125#6 84515126"/>
    </vehicle>
    <vehicle id="7_3.20" depart="529.40" color="cyan">
        <route edges="61843390#0 61843390#1 304525875#1 304525875#2 304525875#3 304525875#4 -17444 264120321#1 264120321#2 264120321#3 264120321#4 264120321#5 264120321#6 264120321#7 264120321#8 420910011#1"/>
    </vehicle>
    <vehicle id="7_1.43" depart="531.95">
        <route edges="67209975 191353111#1 191353111#2 191353111#3 191353111#4 191353111#5 191353111#6 84515125#1 84515125#3 84515125#4 84515125#5 84515125#6 84515126"/>
    </vehicle>
    <vehicle id="7_1.44" depart="544.32">
        <route edges="67209975 191353111#1 191353111#2 191353111#3 191353111#4 191353111#5 191353111#6 84515125#1 84515125#3 84515125#4 84515125#5 84515125#6 84515126"/>
    </vehicle>
    <vehicle id="7_3.21" depart="555.87" color="cyan">
        <route edges="61843390#0 61843390#1 304525875#1 304525875#2 304525875#3 304525875#4 -17444 264120321#1 264120321#2 264120321#3 264120321#4 264120321#5 264120321#6 264120321#7 264120321#8 420910011#1"/>
    </vehicle>
    <vehicle id="7_1.45" depart="556.70">
        <route edges="67209975 191353111#1 191353111#2 191353111#3 191353111#4 191353111#5 191353111#6 84515125#1 84515125#3 84515125#4 84515125#5 84515125#6 84515126"/>
    </vehicle>
    <vehicle id="7_1.46" depart="569.07">
        <route edges="67209975 191353111#1 191353111#2 191353111#3 191353111#4 191353111#5 191353111#6 84515125#1 84515125#3 84515125#4 84515125#5 84515125#6 84515126"/>
    </vehicle>
    <vehicle id="7_1.47" depart="581.44">
        <route edges="67209975 191353111#1 191353111#2 191353111#3 191353111#4 191353111#5 191353111#6 84515125#1 84515125#3 84515125#4 84515125#5 84515125#6 84515126"/>
    </vehicle>
    <vehicle id="7_3.22" depart="582.34" color="cyan">
        <route edges="61843390#0 61843390#1 304525875#1 304525875#2 304525875#3 304525875#4 -17444 264120321#1 264120321#2 264120321#3 264120321#4 264120321#5 264120321#6 264120321#7 264120321#8 420910011#1"/>
    </vehicle>
    <vehicle id="7_1.48" depart="593.81">
        <route edges="67209975 191353111#1 191353111#2 191353111#3 191353111#4 191353111#5 191353111#6 84515125#1 84515125#3 84515125#4 84515125#5 84515125#6 84515126"/>
    </vehicle>
    <vehicle id="7_1.49" depart="606.18">
        <route edges="67209975 191353111#1 191353111#2 191353111#3 191353111#4 191353111#5 191353111#6 84515125#1 84515125#3 84515125#4 84515125#5 84515125#6 84515126"/>
    </vehicle>
    <vehicle id="7_3.23" depart="608.81" color="cyan">
        <route edges="61843390#0 61843390#1 304525875#1 304525875#2 304525875#3 304525875#4 -17444 264120321#1 264120321#2 264120321#3 264120321#4 264120321#5 264120321#6 264120321#7 264120321#8 420910011#1"/>
    </vehicle>
    <vehicle id="7_1.50" depart="618.55">
        <route edges="67209975 191353111#1 191353111#2 191353111#3 191353111#4 191353111#5 191353111#6 84515125#1 84515125#3 84515125#4 84515125#5 84515125#6 84515126"/>
    </vehicle>
    <vehicle id="7_1.51" depart="630.92">
        <route edges="67209975 191353111#1 191353111#2 191353111#3 191353111#4 191353111#5 191353111#6 84515125#1 84515125#3 84515125#4 84515125#5 84515125#6 84515126"/>
    </vehicle>
    <vehicle id="7_3.24" depart="635.28" color="cyan">
        <route edges="61843390#0 61843390#1 304525875#1 304525875#2 304525875#3 304525875#4 -17444 264120321#1 264120321#2 264120321#3 264120321#4 264120321#5 264120321#6 264120321#7 264120321#8 420910011#1"/>
    </vehicle>
    <vehicle id="7_1.52" depart="643.29">
        <route edges="67209975 191353111#1 191353111#2 191353111#3 191353111#4 191353111#5 191353111#6 84515125#1 84515125#3 84515125#4 84515125#5 84515125#6 84515126"/>
    </vehicle>
    <vehicle id="7_1.53" depart="655.66">
        <route edges="67209975 191353111#1 191353111#2 191353111#3 191353111#4 191353111#5 191353111#6 84515125#1 84515125#3 84515125#4 84515125#5 84515125#6 84515126"/>
    </vehicle>
    <vehicle id="7_3.25" depart="661.75" color="cyan">
        <route edges="61843390#0 61843390#1 304525875#1 304525875#2 304525875#3 304525875#4 -17444 264120321#1 264120321#2 264120321#3 264120321#4 264120321#5 264120321#6 264120321#7 264120321#8 420910011#1"/>
    </vehicle>
    <vehicle id="7_1.54" depart="668.03">
        <route edges="67209975 191353111#1 191353111#2 191353111#3 191353111#4 191353111#5 191353111#6 84515125#1 84515125#3 84515125#4 84515125#5 84515125#6 84515126"/>
    </vehicle>
    <vehicle id="7_1.55" depart="680.40">
        <route edges="67209975 191353111#1 191353111#2 191353111#3 191353111#4 191353111#5 191353111#6 84515125#1 84515125#3 84515125#4 84515125#5 84515125#6 84515126"/>
    </vehicle>
    <vehicle id="7_3.26" depart="688.22" color="cyan">
        <route edges="61843390#0 61843390#1 304525875#1 304525875#2 304525875#3 304525875#4 -17444 264120321#1 264120321#2 264120321#3 264120321#4 264120321#5 264120321#6 264120321#7 264120321#8 420910011#1"/>
    </vehicle>
    <vehicle id="7_1.56" depart="692.78">
        <route edges="67209975 191353111#1 191353111#2 191353111#3 191353111#4 191353111#5 191353111#6 84515125#1 84515125#3 84515125#4 84515125#5 84515125#6 84515126"/>
    </vehicle>
    <vehicle id="7_1.57" depart="705.15">
        <route edges="67209975 191353111#1 191353111#2 191353111#3 191353111#4 191353111#5 191353111#6 84515125#1 84515125#3 84515125#4 84515125#5 84515125#6 84515126"/>
    </vehicle>
    <vehicle id="7_3.27" depart="714.69" color="cyan">
        <route edges="61843390#0 61843390#1 304525875#1 304525875#2 304525875#3 304525875#4 -17444 264120321#1 264120321#2 264120321#3 264120321#4 264120321#5 264120321#6 264120321#7 264120321#8 420910011#1"/>
    </vehicle>
    <vehicle id="7_1.58" depart="717.52">
        <route edges="67209975 191353111#1 191353111#2 191353111#3 191353111#4 191353111#5 191353111#6 84515125#1 84515125#3 84515125#4 84515125#5 84515125#6 84515126"/>
    </vehicle>
    <vehicle id="7_2.3" depart="720.00" color="255,166,0">
        <route edges="-84515126 -84515125#6 -84515125#5 -84515125#4 -84515125#3 -84515125#2 264120321#1 264120321#2 264120321#3 264120321#4 264120321#5 264120321#6 264120321#7 264120321#8 420910011#1"/>
    </vehicle>
    <vehicle id="7_5.1" depart="720.00" color="255,166,0">
        <route edges="223785629 84515125#22 84515125#23 84515125#24 84515125#25 304525875#2 304525875#3 304525875#4 -17444 264120321#1 264120321#2 264120321#3 264120321#4 264120321#5 264120321#6 264120321#7 264120321#8 420910011#1"/>
    </vehicle>
    <vehicle id="7_1.59" depart="729.89">
        <route edges="67209975 191353111#1 191353111#2 191353111#3 191353111#4 191353111#5 191353111#6 84515125#1 84515125#3 84515125#4 84515125#5 84515125#6 84515126"/>
    </vehicle>
    <vehicle id="7_3.28" depart="741.16" color="cyan">
        <route edges="61843390#0 61843390#1 304525875#1 304525875#2 304525875#3 304525875#4 -17444 264120321#1 264120321#2 264120321#3 264120321#4 264120321#5 264120321#6 264120321#7 264120321#8 420910011#1"/>
    </vehicle>
    <vehicle id="7_1.60" depart="742.26">
        <route edges="67209975 191353111#1 191353111#2 191353111#3 191353111#4 191353111#5 191353111#6 84515125#1 84515125#3 84515125#4 84515125#5 84515125#6 84515126"/>
    </vehicle>
    <vehicle id="7_1.61" depart="754.63">
        <route edges="67209975 191353111#1 191353111#2 191353111#3 191353111#4 191353111#5 191353111#6 84515125#1 84515125#3 84515125#4 84515125#5 84515125#6 84515126"/>
    </vehicle>
    <vehicle id="7_1.62" depart="767.00">
        <route edges="67209975 191353111#1 191353111#2 191353111#3 191353111#4 191353111#5 191353111#6 84515125#1 84515125#3 84515125#4 84515125#5 84515125#6 84515126"/>
    </vehicle>
    <vehicle id="7_3.29" depart="767.63" color="cyan">
        <route edges="61843390#0 61843390#1 304525875#1 304525875#2 304525875#3 304525875#4 -17444 264120321#1 264120321#2 264120321#3 264120321#4 264120321#5 264120321#6 264120321#7 264120321#8 420910011#1"/>
    </vehicle>
    <vehicle id="7_4.3" depart="771.43" color="255,166,0">
        <route edges="161947715#1 161947715#2 -84515125#10 -84515125#9 -84515125#8 -84515125#7 -84515125#6 -84515125#5 -84515125#4 -84515125#3 -84515125#2 264120321#1 264120321#2 264120321#3 264120321#4 264120321#5 264120321#6 264120321#7 264120321#8 420910011#1"/>
    </vehicle>
    <vehicle id="7_1.63" depart="779.37">
        <route edges="67209975 191353111#1 191353111#2 191353111#3 191353111#4 191353111#5 191353111#6 84515125#1 84515125#3 84515125#4 84515125#5 84515125#6 84515126"/>
    </vehicle>
    <vehicle id="7_1.64" depart="791.74">
        <route edges="67209975 191353111#1 191353111#2 191353111#3 191353111#4 191353111#5 191353111#6 84515125#1 84515125#3 84515125#4 84515125#5 84515125#6 84515126"/>
    </vehicle>
    <vehicle id="7_3.30" depart="794.10" color="cyan">
        <route edges="61843390#0 61843390#1 304525875#1 304525875#2 304525875#3 304525875#4 -17444 264120321#1 264120321#2 264120321#3 264120321#4 264120321#5 264120321#6 264120321#7 264120321#8 420910011#1"/>
    </vehicle>
    <vehicle id="7_1.65" depart="804.12">
        <route edges="67209975 191353111#1 191353111#2 191353111#3 191353111#4 191353111#5 191353111#6 84515125#1 84515125#3 84515125#4 84515125#5 84515125#6 84515126"/>
    </vehicle>
    <vehicle id="7_1.66" depart="816.49">
        <route edges="67209975 191353111#1 191353111#2 191353111#3 191353111#4 191353111#5 191353111#6 84515125#1 84515125#3 84515125#4 84515125#5 84515125#6 84515126"/>
    </vehicle>
    <vehicle id="7_3.31" depart="820.57" color="cyan">
        <route edges="61843390#0 61843390#1 304525875#1 304525875#2 304525875#3 304525875#4 -17444 264120321#1 264120321#2 264120321#3 264120321#4 264120321#5 264120321#6 264120321#7 264120321#8 420910011#1"/>
    </vehicle>
    <vehicle id="7_1.67" depart="828.86">
        <route edges="67209975 191353111#1 191353111#2 191353111#3 191353111#4 191353111#5 191353111#6 84515125#1 84515125#3 84515125#4 84515125#5 84515125#6 84515126"/>
    </vehicle>
    <vehicle id="7_1.68" depart="841.23">
        <route edges="67209975 191353111#1 191353111#2 191353111#3 191353111#4 191353111#5 191353111#6 84515125#1 84515125#3 84515125#4 84515125#5 84515125#6 84515126"/>
    </vehicle>
    <vehicle id="7_3.32" depart="847.04" color="cyan">
        <route edges="61843390#0 61843390#1 304525875#1 304525875#2 304525875#3 304525875#4 -17444 264120321#1 264120321#2 264120321#3 264120321#4 264120321#5 264120321#6 264120321#7 264120321#8 420910011#1"/>
    </vehicle>
    <vehicle id="7_1.69" depart="853.60">
        <route edges="67209975 191353111#1 191353111#2 191353111#3 191353111#4 191353111#5 191353111#6 84515125#1 84515125#3 84515125#4 84515125#5 84515125#6 84515126"/>
    </vehicle>
    <vehicle id="7_1.70" depart="865.97">
        <route edges="67209975 191353111#1 191353111#2 191353111#3 191353111#4 191353111#5 191353111#6 84515125#1 84515125#3 84515125#4 84515125#5 84515125#6 84515126"/>
    </vehicle>
    <vehicle id="7_3.33" depart="873.51" color="cyan">
        <route edges="61843390#0 61843390#1 304525875#1 304525875#2 304525875#3 304525875#4 -17444 264120321#1 264120321#2 264120321#3 264120321#4 264120321#5 264120321#6 264120321#7 264120321#8 420910011#1"/>
    </vehicle>
    <vehicle id="7_1.71" depart="878.34">
        <route edges="67209975 191353111#1 191353111#2 191353111#3 191353111#4 191353111#5 191353111#6 84515125#1 84515125#3 84515125#4 84515125#5 84515125#6 84515126"/>
    </vehicle>
    <vehicle id="7_1.72" depart="890.71">
        <route edges="67209975 191353111#1 191353111#2 191353111#3 191353111#4 191353111#5 191353111#6 84515125#1 84515125#3 84515125#4 84515125#5 84515125#6 84515126"/>
    </vehicle>
    <vehicle id="7_3.34" depart="899.98" color="cyan">