<?xml version="1.0" encoding="UTF-8"?>
<nodes xmlns:xsi="http://www.w3.org/2001/XMLSchema-instance" xsi:noNamespaceSchemaLocation="http://sumo.dlr.de/xsd/nodes_file.xsd">
  <node id="-1000" x="-30.0" y="0.0" />
  <node id="-0200" x="-6.0" y="0.0" />
  <node id="3000" x="90.0" y="0.0" />

  <node id="0000" x="0.0" y="0.0" />
  <node id="0018" x="0.0" y="54.0" />

  <node id="0203" x="6.0" y="9.0" />
  <node id="0206" x="6.0" y="18.0" />
  <node id="0209" x="6.0" y="27.0" />
  <node id="0212" x="6.0" y="36.0" />
  <node id="0215" x="6.0" y="45.0" />

  <node id="0406" x="12.0" y="18.0" />
  <node id="0409" x="12.0" y="27.0" />
  <node id="0412" x="12.0" y="36.0" />
  <node id="0415" x="12.0" y="45.0" />

  <node id="0706" x="21.0" y="18.0" />
  <node id="0709" x="21.0" y="27.0" />
  <node id="0712" x="21.0" y="36.0" />
  <node id="0715" x="21.0" y="45.0" />
  <node id="0718" x="21.0" y="54.0" />

  <node id="0903" x="27.0" y="9.0" />
  <node id="0906" x="27.0" y="18.0" />
  <node id="0909" x="27.0" y="27.0" />
  <node id="0912" x="27.0" y="36.0" />
  <node id="0915" x="27.0" y="45.0" />

  <node id="1106" x="33.0" y="18.0" />
  <node id="1109" x="33.0" y="27.0" />
  <node id="1112" x="33.0" y="36.0" />
  <node id="1115" x="33.0" y="45.0" />

  <node id="1406" x="42.0" y="18.0" />
  <node id="1409" x="42.0" y="27.0" />
  <node id="1412" x="42.0" y="36.0" />
  <node id="1415" x="42.0" y="45.0" />
  <node id="1418" x="42.0" y="54.0" />

  <node id="1603" x="48.0" y="9.0" />
  <node id="1606" x="48.0" y="18.0" />
  <node id="1609" x="48.0" y="27.0" />
  <node id="1612" x="48.0" y="36.0" />
  <node id="1615" x="48.0" y="45.0" />

  <node id="1806" x="54.0" y="18.0" />
  <node id="1809" x="54.0" y="27.0" />
  <node id="1812" x="54.0" y="36.0" />
  <node id="1815" x="54.0" y="45.0" />

  <node id="2100" x="63.0" y="0.0" />
  <node id="2103" x="63.0" y="9.0" />
  <node id="2106" x="63.0" y="18.0" />
  <node id="2109" x="63.0" y="27.0" />
  <node id="2112" x="63.0" y="36.0" />
  <node id="2115" x="63.0" y="45.0" />
  <node id="2118" x="63.0" y="54.0" />

</nodes>
