<?xml version="1.0" encoding="UTF-8" ?>
<configuration xmls:xsi="http://www.w3.org/2001/XMLSchema-instance" xsi:noNamespaceSchemaLocation="http://sumo.sf.net/xsd/sumoConfiguration.xsd">
  <input>
    <net-file value="parking.net.xml" />
    <route-files value="parking.rou.xml" />
  </input>

  <time>
    <begin value="0" />
    <end value="3600" />
  </time>
</configuration>
