<?xml version="1.0" encoding="UTF-8"?>

<!-- generated on Fri Nov 11 12:24:51 2016 by SUMO netconvert Version 0.27.1
<?xml version="1.0" encoding="UTF-8"?>

<configuration xmlns:xsi="http://www.w3.org/2001/XMLSchema-instance" xsi:noNamespaceSchemaLocation="http://sumo.dlr.de/xsd/netconvertConfiguration.xsd">

    <input>
        <node-files value="parking.nod.xml"/>
        <edge-files value="parking.edg.xml"/>
    </input>

    <output>
        <output-file value="parking.net.xml"/>
    </output>

    <processing>
        <no-turnarounds value="true"/>
        <lefthand value="true"/>
    </processing>

</configuration>
-->

<net version="0.27" lefthand="true" xmlns:xsi="http://www.w3.org/2001/XMLSchema-instance" xsi:noNamespaceSchemaLocation="http://sumo.dlr.de/xsd/net_file.xsd">

    <location netOffset="30.00,-0.00" convBoundary="0.00,-0.00,120.00,54.00" origBoundary="-30.00,0.00,90.00,54.00" projParameter="!"/>

    <edge id=":-0200_0" function="internal">
        <lane id=":-0200_0_0" index="0" speed="13.90" length="0.10" shape="24.00,1.65 24.00,1.65"/>
    </edge>
    <edge id=":0000_0" function="internal">
        <lane id=":0000_0_0" index="0" speed="13.90" length="5.00" shape="25.25,1.65 26.61,1.84 27.57,2.42 28.16,3.39 28.35,4.75"/>
    </edge>
    <edge id=":0000_1" function="internal">
        <lane id=":0000_1_0" index="0" speed="13.90" length="6.20" shape="25.25,1.65 31.45,1.65"/>
    </edge>
    <edge id=":0018_0" function="internal">
        <lane id=":0018_0_0" index="0" speed="13.90" length="2.58" shape="28.35,54.05 28.45,54.75 28.75,55.25 29.25,55.55 29.95,55.65"/>
    </edge>
    <edge id=":0203_0" function="internal">
        <lane id=":0203_0_0" index="0" speed="13.90" length="2.58" shape="37.65,12.25 37.75,11.55 38.05,11.05 38.55,10.75 39.25,10.65"/>
    </edge>
    <edge id=":0206_0" function="internal">
        <lane id=":0206_0_0" index="0" speed="13.90" length="5.00" shape="40.75,16.35 39.39,16.16 38.43,15.58 37.84,14.61 37.65,13.25"/>
    </edge>
    <edge id=":0206_1" function="internal">
        <lane id=":0206_1_0" index="0" speed="13.90" length="6.25" shape="37.65,19.50 37.65,13.25"/>
    </edge>
    <edge id=":0209_0" function="internal">
        <lane id=":0209_0_0" index="0" speed="13.90" length="5.00" shape="40.75,25.35 39.39,25.16 38.43,24.58 37.84,23.61 37.65,22.25"/>
    </edge>
    <edge id=":0209_1" function="internal">
        <lane id=":0209_1_0" index="0" speed="13.90" length="6.25" shape="37.65,28.50 37.65,22.25"/>
    </edge>
    <edge id=":0212_0" function="internal">
        <lane id=":0212_0_0" index="0" speed="13.90" length="5.00" shape="40.75,34.35 39.39,34.16 38.42,33.58 37.84,32.61 37.65,31.25"/>
    </edge>
    <edge id=":0212_1" function="internal">
        <lane id=":0212_1_0" index="0" speed="13.90" length="6.25" shape="37.65,37.50 37.65,31.25"/>
    </edge>
    <edge id=":0215_0" function="internal">
        <lane id=":0215_0_0" index="0" speed="13.90" length="2.58" shape="39.25,43.35 38.55,43.25 38.05,42.95 37.75,42.45 37.65,41.75"/>
    </edge>
    <edge id=":0406_0" function="internal">
        <lane id=":0406_0_0" index="0" speed="13.90" length="0.10" shape="42.00,16.35 42.00,16.35"/>
    </edge>
    <edge id=":0409_0" function="internal">
        <lane id=":0409_0_0" index="0" speed="13.90" length="0.10" shape="42.00,25.35 42.00,25.35"/>
    </edge>
    <edge id=":0412_0" function="internal">
        <lane id=":0412_0_0" index="0" speed="13.90" length="0.10" shape="42.00,34.35 42.00,34.35"/>
    </edge>
    <edge id=":0415_0" function="internal">
        <lane id=":0415_0_0" index="0" speed="13.90" length="0.10" shape="42.00,43.35 42.00,43.35"/>
    </edge>
    <edge id=":0706_0" function="internal">
        <lane id=":0706_0_0" index="0" speed="13.90" length="2.58" shape="52.65,17.95 52.55,17.25 52.25,16.75 51.75,16.45 51.05,16.35"/>
    </edge>
    <edge id=":0709_0" function="internal">
        <lane id=":0709_0_0" index="0" speed="13.90" length="6.25" shape="52.65,28.50 52.65,22.25"/>
    </edge>
    <edge id=":0709_1" function="internal">
        <lane id=":0709_1_0" index="0" speed="13.90" length="5.04" shape="52.65,28.50 52.46,27.12 51.88,26.14 50.91,25.55 49.55,25.35"/>
    </edge>
    <edge id=":0712_0" function="internal">
        <lane id=":0712_0_0" index="0" speed="13.90" length="6.25" shape="52.65,37.50 52.65,31.25"/>
    </edge>
    <edge id=":0712_1" function="internal">
        <lane id=":0712_1_0" index="0" speed="13.90" length="5.04" shape="52.65,37.50 52.46,36.12 51.88,35.14 50.91,34.55 49.55,34.35"/>
    </edge>
    <edge id=":0715_0" function="internal">
        <lane id=":0715_0_0" index="0" speed="13.90" length="6.25" shape="52.65,46.50 52.65,40.25"/>
    </edge>
    <edge id=":0715_1" function="internal">
        <lane id=":0715_1_0" index="0" speed="13.90" length="5.04" shape="52.65,46.50 52.46,45.12 51.88,44.14 50.91,43.55 49.55,43.35"/>
    </edge>
    <edge id=":0718_0" function="internal">
        <lane id=":0718_0_0" index="0" speed="13.90" length="6.25" shape="49.50,55.65 55.75,55.65"/>
    </edge>
    <edge id=":0718_1" function="internal">
        <lane id=":0718_1_0" index="0" speed="13.90" length="5.04" shape="49.50,55.65 50.88,55.46 51.86,54.88 52.45,53.91 52.65,52.55"/>
    </edge>
    <edge id=":0903_0" function="internal">
        <lane id=":0903_0_0" index="0" speed="13.90" length="4.84" shape="58.65,13.55 58.84,12.28 59.42,11.38 60.39,10.83 61.75,10.65"/>
    </edge>
    <edge id=":0903_1" function="internal">
        <lane id=":0903_1_0" index="0" speed="13.90" length="6.25" shape="55.50,10.65 61.75,10.65"/>
    </edge>
    <edge id=":0906_0" function="internal">
        <lane id=":0906_0_0" index="0" speed="13.90" length="4.60" shape="61.75,16.35 60.39,16.19 59.43,15.70 58.84,14.89 58.65,13.75"/>
    </edge>
    <edge id=":0906_1" function="internal">
        <lane id=":0906_1_0" index="0" speed="13.90" length="5.75" shape="58.65,19.50 58.65,13.75"/>
    </edge>
    <edge id=":0909_0" function="internal">
        <lane id=":0909_0_0" index="0" speed="13.90" length="5.00" shape="61.75,25.35 60.39,25.16 59.43,24.58 58.84,23.61 58.65,22.25"/>
    </edge>
    <edge id=":0909_1" function="internal">
        <lane id=":0909_1_0" index="0" speed="13.90" length="6.25" shape="58.65,28.50 58.65,22.25"/>
    </edge>
    <edge id=":0912_0" function="internal">
        <lane id=":0912_0_0" index="0" speed="13.90" length="5.00" shape="61.75,34.35 60.39,34.16 59.42,33.58 58.84,32.61 58.65,31.25"/>
    </edge>
    <edge id=":0912_1" function="internal">
        <lane id=":0912_1_0" index="0" speed="13.90" length="6.25" shape="58.65,37.50 58.65,31.25"/>
    </edge>
    <edge id=":0915_0" function="internal">
        <lane id=":0915_0_0" index="0" speed="13.90" length="2.58" shape="60.25,43.35 59.55,43.25 59.05,42.95 58.75,42.45 58.65,41.75"/>
    </edge>
    <edge id=":1106_0" function="internal">
        <lane id=":1106_0_0" index="0" speed="13.90" length="0.10" shape="63.00,16.35 63.00,16.35"/>
    </edge>
    <edge id=":1109_0" function="internal">
        <lane id=":1109_0_0" index="0" speed="13.90" length="0.10" shape="63.00,25.35 63.00,25.35"/>
    </edge>
    <edge id=":1112_0" function="internal">
        <lane id=":1112_0_0" index="0" speed="13.90" length="0.10" shape="63.00,34.35 63.00,34.35"/>
    </edge>
    <edge id=":1115_0" function="internal">
        <lane id=":1115_0_0" index="0" speed="13.90" length="0.10" shape="63.00,43.35 63.00,43.35"/>
    </edge>
    <edge id=":1406_0" function="internal">
        <lane id=":1406_0_0" index="0" speed="13.90" length="2.58" shape="73.65,17.95 73.55,17.25 73.25,16.75 72.75,16.45 72.05,16.35"/>
    </edge>
    <edge id=":1409_0" function="internal">
        <lane id=":1409_0_0" index="0" speed="13.90" length="6.25" shape="73.65,28.50 73.65,22.25"/>
    </edge>
    <edge id=":1409_1" function="internal">
        <lane id=":1409_1_0" index="0" speed="13.90" length="5.04" shape="73.65,28.50 73.46,27.12 72.88,26.14 71.91,25.55 70.55,25.35"/>
    </edge>
    <edge id=":1412_0" function="internal">
        <lane id=":1412_0_0" index="0" speed="13.90" length="6.25" shape="73.65,37.50 73.65,31.25"/>
    </edge>
    <edge id=":1412_1" function="internal">
        <lane id=":1412_1_0" index="0" speed="13.90" length="5.04" shape="73.65,37.50 73.46,36.12 72.88,35.14 71.91,34.55 70.55,34.35"/>
    </edge>
    <edge id=":1415_0" function="internal">
        <lane id=":1415_0_0" index="0" speed="13.90" length="6.25" shape="73.65,46.50 73.65,40.25"/>
    </edge>
    <edge id=":1415_1" function="internal">
        <lane id=":1415_1_0" index="0" speed="13.90" length="5.04" shape="73.65,46.50 73.46,45.12 72.88,44.14 71.91,43.55 70.55,43.35"/>
    </edge>
    <edge id=":1418_0" function="internal">
        <lane id=":1418_0_0" index="0" speed="13.90" length="6.25" shape="70.50,55.65 76.75,55.65"/>
    </edge>
    <edge id=":1418_1" function="internal">
        <lane id=":1418_1_0" index="0" speed="13.90" length="5.04" shape="70.50,55.65 71.88,55.46 72.86,54.88 73.45,53.91 73.65,52.55"/>
    </edge>
    <edge id=":1603_0" function="internal">
        <lane id=":1603_0_0" index="0" speed="13.90" length="4.84" shape="79.65,13.55 79.84,12.28 80.43,11.38 81.39,10.83 82.75,10.65"/>
    </edge>
    <edge id=":1603_1" function="internal">
        <lane id=":1603_1_0" index="0" speed="13.90" length="9.25" shape="73.50,10.65 82.75,10.65"/>
    </edge>
    <edge id=":1606_0" function="internal">
        <lane id=":1606_0_0" index="0" speed="13.90" length="4.60" shape="82.75,16.35 81.39,16.19 80.43,15.70 79.84,14.89 79.65,13.75"/>
    </edge>
    <edge id=":1606_1" function="internal">
        <lane id=":1606_1_0" index="0" speed="13.90" length="5.75" shape="79.65,19.50 79.65,13.75"/>
    </edge>
    <edge id=":1609_0" function="internal">
        <lane id=":1609_0_0" index="0" speed="13.90" length="5.00" shape="82.75,25.35 81.39,25.16 80.43,24.58 79.84,23.61 79.65,22.25"/>
    </edge>
    <edge id=":1609_1" function="internal">
        <lane id=":1609_1_0" index="0" speed="13.90" length="6.25" shape="79.65,28.50 79.65,22.25"/>
    </edge>
    <edge id=":1612_0" function="internal">
        <lane id=":1612_0_0" index="0" speed="13.90" length="5.00" shape="82.75,34.35 81.39,34.16 80.42,33.58 79.84,32.61 79.65,31.25"/>
    </edge>
    <edge id=":1612_1" function="internal">
        <lane id=":1612_1_0" index="0" speed="13.90" length="6.25" shape="79.65,37.50 79.65,31.25"/>
    </edge>
    <edge id=":1615_0" function="internal">
        <lane id=":1615_0_0" index="0" speed="13.90" length="2.58" shape="81.25,43.35 80.55,43.25 80.05,42.95 79.75,42.45 79.65,41.75"/>
    </edge>
    <edge id=":1806_0" function="internal">
        <lane id=":1806_0_0" index="0" speed="13.90" length="0.10" shape="84.00,16.35 84.00,16.35"/>
    </edge>
    <edge id=":1809_0" function="internal">
        <lane id=":1809_0_0" index="0" speed="13.90" length="0.10" shape="84.00,25.35 84.00,25.35"/>
    </edge>
    <edge id=":1812_0" function="internal">
        <lane id=":1812_0_0" index="0" speed="13.90" length="0.10" shape="84.00,34.35 84.00,34.35"/>
    </edge>
    <edge id=":1815_0" function="internal">
        <lane id=":1815_0_0" index="0" speed="13.90" length="0.10" shape="84.00,43.35 84.00,43.35"/>
    </edge>
    <edge id=":2100_0" function="internal">
        <lane id=":2100_0_0" index="0" speed="13.90" length="5.00" shape="94.65,4.75 94.84,3.39 95.43,2.43 96.39,1.84 97.75,1.65"/>
    </edge>
    <edge id=":2100_1" function="internal">
        <lane id=":2100_1_0" index="0" speed="13.90" length="6.20" shape="91.55,1.65 97.75,1.65"/>
    </edge>
    <edge id=":2103_0" function="internal">
        <lane id=":2103_0_0" index="0" speed="13.90" length="2.58" shape="93.05,10.65 93.75,10.55 94.25,10.25 94.55,9.75 94.65,9.05"/>
    </edge>
    <edge id=":2106_0" function="internal">
        <lane id=":2106_0_0" index="0" speed="13.90" length="2.58" shape="94.65,17.95 94.55,17.25 94.25,16.75 93.75,16.45 93.05,16.35"/>
    </edge>
    <edge id=":2109_0" function="internal">
        <lane id=":2109_0_0" index="0" speed="13.90" length="6.25" shape="94.65,28.50 94.65,22.25"/>
    </edge>
    <edge id=":2109_1" function="internal">
        <lane id=":2109_1_0" index="0" speed="13.90" length="5.04" shape="94.65,28.50 94.46,27.12 93.88,26.14 92.91,25.55 91.55,25.35"/>
    </edge>
    <edge id=":2112_0" function="internal">
        <lane id=":2112_0_0" index="0" speed="13.90" length="6.25" shape="94.65,37.50 94.65,31.25"/>
    </edge>
    <edge id=":2112_1" function="internal">
        <lane id=":2112_1_0" index="0" speed="13.90" length="5.04" shape="94.65,37.50 94.46,36.12 93.88,35.14 92.91,34.55 91.55,34.35"/>
    </edge>
    <edge id=":2115_0" function="internal">
        <lane id=":2115_0_0" index="0" speed="13.90" length="6.25" shape="94.65,46.50 94.65,40.25"/>
    </edge>
    <edge id=":2115_1" function="internal">
        <lane id=":2115_1_0" index="0" speed="13.90" length="5.04" shape="94.65,46.50 94.46,45.12 93.88,44.14 92.91,43.55 91.55,43.35"/>
    </edge>
    <edge id=":2118_0" function="internal">
        <lane id=":2118_0_0" index="0" speed="13.90" length="2.58" shape="93.05,55.65 93.75,55.55 94.25,55.25 94.55,54.75 94.65,54.05"/>
    </edge>

    <edge id="-0200_0000" from="-0200" to="0000" priority="-1">
        <lane id="-0200_0000_0" index="0" speed="13.90" length="1.25" shape="24.00,1.65 25.25,1.65"/>
    </edge>
    <edge id="0000_0018" from="0000" to="0018" priority="-1">
        <lane id="0000_0018_0" index="0" speed="13.90" length="49.30" shape="28.35,4.75 28.35,54.05"/>
    </edge>
    <edge id="0000_2100" from="0000" to="2100" priority="-1">
        <lane id="0000_2100_0" index="0" speed="13.90" length="60.10" shape="31.45,1.65 91.55,1.65"/>
    </edge>
    <edge id="0018_0718" from="0018" to="0718" priority="-1">
        <lane id="0018_0718_0" index="0" speed="13.90" length="19.55" shape="29.95,55.65 49.50,55.65"/>
    </edge>
    <edge id="0203_0903" from="0203" to="0903" priority="-1">
        <lane id="0203_0903_0" index="0" speed="13.90" length="16.25" shape="39.25,10.65 55.50,10.65"/>
    </edge>
    <edge id="0206_0203" from="0206" to="0203" priority="-1">
        <lane id="0206_0203_0" index="0" speed="13.90" length="1.00" shape="37.65,13.25 37.65,12.25"/>
    </edge>
    <edge id="0209_0206" from="0209" to="0206" priority="-1">
        <lane id="0209_0206_0" index="0" speed="13.90" length="2.75" shape="37.65,22.25 37.65,19.50"/>
    </edge>
    <edge id="0212_0209" from="0212" to="0209" priority="-1">
        <lane id="0212_0209_0" index="0" speed="13.90" length="2.75" shape="37.65,31.25 37.65,28.50"/>
    </edge>
    <edge id="0215_0212" from="0215" to="0212" priority="-1">
        <lane id="0215_0212_0" index="0" speed="13.90" length="4.25" shape="37.65,41.75 37.65,37.50"/>
    </edge>
    <edge id="0406_0206" from="0406" to="0206" priority="-1">
        <lane id="0406_0206_0" index="0" speed="13.90" length="1.25" shape="42.00,16.35 40.75,16.35"/>
    </edge>
    <edge id="0409_0209" from="0409" to="0209" priority="-1">
        <lane id="0409_0209_0" index="0" speed="13.90" length="1.25" shape="42.00,25.35 40.75,25.35"/>
    </edge>
    <edge id="0412_0212" from="0412" to="0212" priority="-1">
        <lane id="0412_0212_0" index="0" speed="13.90" length="1.25" shape="42.00,34.35 40.75,34.35"/>
    </edge>
    <edge id="0415_0215" from="0415" to="0215" priority="-1">
        <lane id="0415_0215_0" index="0" speed="13.90" length="2.75" shape="42.00,43.35 39.25,43.35"/>
    </edge>
    <edge id="0709_0706" from="0709" to="0706" priority="-1">
        <lane id="0709_0706_0" index="0" speed="13.90" length="4.30" shape="52.65,22.25 52.65,17.95"/>
    </edge>
    <edge id="0712_0709" from="0712" to="0709" priority="-1">
        <lane id="0712_0709_0" index="0" speed="13.90" length="2.75" shape="52.65,31.25 52.65,28.50"/>
    </edge>
    <edge id="0715_0712" from="0715" to="0712" priority="-1">
        <lane id="0715_0712_0" index="0" speed="13.90" length="2.75" shape="52.65,40.25 52.65,37.50"/>
    </edge>
    <edge id="0718_0715" from="0718" to="0715" priority="-1">
        <lane id="0718_0715_0" index="0" speed="13.90" length="6.05" shape="52.65,52.55 52.65,46.50"/>
    </edge>
    <edge id="0718_1418" from="0718" to="1418" priority="-1">
        <lane id="0718_1418_0" index="0" speed="13.90" length="14.75" shape="55.75,55.65 70.50,55.65"/>
    </edge>
    <edge id="0903_1603" from="0903" to="1603" priority="-1">
        <lane id="0903_1603_0" index="0" speed="13.90" length="11.75" shape="61.75,10.65 73.50,10.65"/>
    </edge>
    <edge id="0906_0903" from="0906" to="0903" priority="-1">
        <lane id="0906_0903_0" index="0" speed="13.90" length="0.20" shape="58.65,13.75 58.65,13.55"/>
    </edge>
    <edge id="0909_0906" from="0909" to="0906" priority="-1">
        <lane id="0909_0906_0" index="0" speed="13.90" length="2.75" shape="58.65,22.25 58.65,19.50"/>
    </edge>
    <edge id="0912_0909" from="0912" to="0909" priority="-1">
        <lane id="0912_0909_0" index="0" speed="13.90" length="2.75" shape="58.65,31.25 58.65,28.50"/>
    </edge>
    <edge id="0915_0912" from="0915" to="0912" priority="-1">
        <lane id="0915_0912_0" index="0" speed="13.90" length="4.25" shape="58.65,41.75 58.65,37.50"/>
    </edge>
    <edge id="1106_0906" from="1106" to="0906" priority="-1">
        <lane id="1106_0906_0" index="0" speed="13.90" length="1.25" shape="63.00,16.35 61.75,16.35"/>
    </edge>
    <edge id="1109_0909" from="1109" to="0909" priority="-1">
        <lane id="1109_0909_0" index="0" speed="13.90" length="1.25" shape="63.00,25.35 61.75,25.35"/>
    </edge>
    <edge id="1112_0912" from="1112" to="0912" priority="-1">
        <lane id="1112_0912_0" index="0" speed="13.90" length="1.25" shape="63.00,34.35 61.75,34.35"/>
    </edge>
    <edge id="1115_0915" from="1115" to="0915" priority="-1">
        <lane id="1115_0915_0" index="0" speed="13.90" length="2.75" shape="63.00,43.35 60.25,43.35"/>
    </edge>
    <edge id="1409_1406" from="1409" to="1406" priority="-1">
        <lane id="1409_1406_0" index="0" speed="13.90" length="4.30" shape="73.65,22.25 73.65,17.95"/>
    </edge>
    <edge id="1412_1409" from="1412" to="1409" priority="-1">
        <lane id="1412_1409_0" index="0" speed="13.90" length="2.75" shape="73.65,31.25 73.65,28.50"/>
    </edge>
    <edge id="1415_1412" from="1415" to="1412" priority="-1">
        <lane id="1415_1412_0" index="0" speed="13.90" length="2.75" shape="73.65,40.25 73.65,37.50"/>
    </edge>
    <edge id="1418_1415" from="1418" to="1415" priority="-1">
        <lane id="1418_1415_0" index="0" speed="13.90" length="6.05" shape="73.65,52.55 73.65,46.50"/>
    </edge>
    <edge id="1418_2118" from="1418" to="2118" priority="-1">
        <lane id="1418_2118_0" index="0" speed="13.90" length="16.30" shape="76.75,55.65 93.05,55.65"/>
    </edge>
    <edge id="1603_2103" from="1603" to="2103" priority="-1">
        <lane id="1603_2103_0" index="0" speed="13.90" length="10.30" shape="82.75,10.65 93.05,10.65"/>
    </edge>
    <edge id="1606_0903" from="1606" to="1603" priority="-1">
        <lane id="1606_0903_0" index="0" speed="13.90" length="0.20" shape="79.65,13.75 79.65,13.55"/>
    </edge>
    <edge id="1609_0906" from="1609" to="1606" priority="-1">
        <lane id="1609_0906_0" index="0" speed="13.90" length="2.75" shape="79.65,22.25 79.65,19.50"/>
    </edge>
    <edge id="1612_0909" from="1612" to="1609" priority="-1">
        <lane id="1612_0909_0" index="0" speed="13.90" length="2.75" shape="79.65,31.25 79.65,28.50"/>
    </edge>
    <edge id="1615_0912" from="1615" to="1612" priority="-1">
        <lane id="1615_0912_0" index="0" speed="13.90" length="4.25" shape="79.65,41.75 79.65,37.50"/>
    </edge>
    <edge id="1806_1606" from="1806" to="1606" priority="-1">
        <lane id="1806_1606_0" index="0" speed="13.90" length="1.25" shape="84.00,16.35 82.75,16.35"/>
    </edge>
    <edge id="1809_1609" from="1809" to="1609" priority="-1">
        <lane id="1809_1609_0" index="0" speed="13.90" length="1.25" shape="84.00,25.35 82.75,25.35"/>
    </edge>
    <edge id="1812_1612" from="1812" to="1612" priority="-1">
        <lane id="1812_1612_0" index="0" speed="13.90" length="1.25" shape="84.00,34.35 82.75,34.35"/>
    </edge>
    <edge id="1815_1615" from="1815" to="1615" priority="-1">
        <lane id="1815_1615_0" index="0" speed="13.90" length="2.75" shape="84.00,43.35 81.25,43.35"/>
    </edge>
    <edge id="2103_2100" from="2103" to="2100" priority="-1">
        <lane id="2103_2100_0" index="0" speed="13.90" length="4.30" shape="94.65,9.05 94.65,4.75"/>
    </edge>
    <edge id="2109_2106" from="2109" to="2106" priority="-1">
        <lane id="2109_2106_0" index="0" speed="13.90" length="4.30" shape="94.65,22.25 94.65,17.95"/>
    </edge>
    <edge id="2112_2109" from="2112" to="2109" priority="-1">
        <lane id="2112_2109_0" index="0" speed="13.90" length="2.75" shape="94.65,31.25 94.65,28.50"/>
    </edge>
    <edge id="2115_2112" from="2115" to="2112" priority="-1">
        <lane id="2115_2112_0" index="0" speed="13.90" length="2.75" shape="94.65,40.25 94.65,37.50"/>
    </edge>
    <edge id="2118_2115" from="2118" to="2115" priority="-1">
        <lane id="2118_2115_0" index="0" speed="13.90" length="7.55" shape="94.65,54.05 94.65,46.50"/>
    </edge>
    <edge id="P01" from="0715" to="0415" priority="-1">
        <lane id="P01_0" index="0" speed="13.90" length="7.55" shape="49.55,43.35 42.00,43.35"/>
    </edge>
    <edge id="P02" from="0712" to="0412" priority="-1">
        <lane id="P02_0" index="0" speed="13.90" length="7.55" shape="49.55,34.35 42.00,34.35"/>
    </edge>
    <edge id="P03" from="0709" to="0409" priority="-1">
        <lane id="P03_0" index="0" speed="13.90" length="7.55" shape="49.55,25.35 42.00,25.35"/>
    </edge>
    <edge id="P04" from="0706" to="0406" priority="-1">
        <lane id="P04_0" index="0" speed="13.90" length="9.05" shape="51.05,16.35 42.00,16.35"/>
    </edge>
    <edge id="P05" from="1415" to="1115" priority="-1">
        <lane id="P05_0" index="0" speed="13.90" length="7.55" shape="70.55,43.35 63.00,43.35"/>
    </edge>
    <edge id="P06" from="1412" to="1112" priority="-1">
        <lane id="P06_0" index="0" speed="13.90" length="7.55" shape="70.55,34.35 63.00,34.35"/>
    </edge>
    <edge id="P07" from="1409" to="1109" priority="-1">
        <lane id="P07_0" index="0" speed="13.90" length="7.55" shape="70.55,25.35 63.00,25.35"/>
    </edge>
    <edge id="P08" from="1406" to="1106" priority="-1">
        <lane id="P08_0" index="0" speed="13.90" length="9.05" shape="72.05,16.35 63.00,16.35"/>
    </edge>
    <edge id="P09" from="2115" to="1815" priority="-1">
        <lane id="P09_0" index="0" speed="13.90" length="7.55" shape="91.55,43.35 84.00,43.35"/>
    </edge>
    <edge id="P10" from="2112" to="1812" priority="-1">
        <lane id="P10_0" index="0" speed="13.90" length="7.55" shape="91.55,34.35 84.00,34.35"/>
    </edge>
    <edge id="P11" from="2109" to="1809" priority="-1">
        <lane id="P11_0" index="0" speed="13.90" length="7.55" shape="91.55,25.35 84.00,25.35"/>
    </edge>
    <edge id="P12" from="2106" to="1806" priority="-1">
        <lane id="P12_0" index="0" speed="13.90" length="9.05" shape="93.05,16.35 84.00,16.35"/>
    </edge>
    <edge id="in" from="-1000" to="-0200" priority="-1">
        <lane id="in_0" index="0" speed="13.90" length="24.00" shape="0.00,1.65 24.00,1.65"/>
    </edge>
    <edge id="out" from="2100" to="3000" priority="-1">
        <lane id="out_0" index="0" speed="13.90" length="22.25" shape="97.75,1.65 120.00,1.65"/>
    </edge>

    <junction id="-0200" type="priority" x="24.00" y="-0.00" incLanes="in_0" intLanes=":-0200_0_0" shape="24.00,0.05 24.00,3.25 24.00,0.05">
        <request index="0" response="0" foes="0" cont="0"/>
    </junction>
    <junction id="-1000" type="unregulated" x="0.00" y="-0.00" incLanes="" intLanes="" shape="0.00,0.05 0.00,3.25"/>
    <junction id="0000" type="priority" x="30.00" y="-0.00" incLanes="-0200_0000_0" intLanes=":0000_0_0 :0000_1_0" shape="31.45,0.05 31.45,3.25 29.95,4.75 26.75,4.75 25.25,3.25 25.25,0.05">
        <request index="0" response="00" foes="00" cont="0"/>
        <request index="1" response="00" foes="00" cont="0"/>
    </junction>
    <junction id="0018" type="priority" x="30.00" y="54.00" incLanes="0000_0018_0" intLanes=":0018_0_0" shape="26.75,54.05 29.95,54.05 29.95,57.25">
        <request index="0" response="0" foes="0" cont="0"/>
    </junction>
    <junction id="0203" type="priority" x="36.00" y="9.00" incLanes="0206_0203_0" intLanes=":0203_0_0" shape="39.25,9.05 39.25,12.25 36.05,12.25">
        <request index="0" response="0" foes="0" cont="0"/>
    </junction>
    <junction id="0206" type="priority" x="36.00" y="18.00" incLanes="0406_0206_0 0209_0206_0" intLanes=":0206_0_0 :0206_1_0" shape="36.05,13.25 39.25,13.25 40.75,14.75 40.75,17.95 39.25,19.50 36.05,19.50">
        <request index="0" response="00" foes="10" cont="0"/>
        <request index="1" response="01" foes="01" cont="0"/>
    </junction>
    <junction id="0209" type="priority" x="36.00" y="27.00" incLanes="0409_0209_0 0212_0209_0" intLanes=":0209_0_0 :0209_1_0" shape="36.05,22.25 39.25,22.25 40.75,23.75 40.75,26.95 39.25,28.50 36.05,28.50">
        <request index="0" response="00" foes="10" cont="0"/>
        <request index="1" response="01" foes="01" cont="0"/>
    </junction>
    <junction id="0212" type="priority" x="36.00" y="36.00" incLanes="0412_0212_0 0215_0212_0" intLanes=":0212_0_0 :0212_1_0" shape="36.05,31.25 39.25,31.25 40.75,32.75 40.75,35.95 39.25,37.50 36.05,37.50">
        <request index="0" response="00" foes="10" cont="0"/>
        <request index="1" response="01" foes="01" cont="0"/>
    </junction>
    <junction id="0215" type="priority" x="36.00" y="45.00" incLanes="0415_0215_0" intLanes=":0215_0_0" shape="36.05,41.75 39.25,41.75 39.25,44.95">
        <request index="0" response="0" foes="0" cont="0"/>
    </junction>
    <junction id="0406" type="priority" x="42.00" y="18.00" incLanes="P04_0" intLanes=":0406_0_0" shape="42.00,14.75 42.00,17.95 42.00,14.75">
        <request index="0" response="0" foes="0" cont="0"/>
    </junction>
    <junction id="0409" type="priority" x="42.00" y="27.00" incLanes="P03_0" intLanes=":0409_0_0" shape="42.00,23.75 42.00,26.95 42.00,23.75">
        <request index="0" response="0" foes="0" cont="0"/>
    </junction>
    <junction id="0412" type="priority" x="42.00" y="36.00" incLanes="P02_0" intLanes=":0412_0_0" shape="42.00,32.75 42.00,35.95 42.00,32.75">
        <request index="0" response="0" foes="0" cont="0"/>
    </junction>
    <junction id="0415" type="priority" x="42.00" y="45.00" incLanes="P01_0" intLanes=":0415_0_0" shape="42.00,41.75 42.00,44.95 42.00,41.75">
        <request index="0" response="0" foes="0" cont="0"/>
    </junction>
    <junction id="0706" type="priority" x="51.00" y="18.00" incLanes="0709_0706_0" intLanes=":0706_0_0" shape="54.25,17.95 51.05,17.95 51.05,14.75">
        <request index="0" response="0" foes="0" cont="0"/>
    </junction>
    <junction id="0709" type="priority" x="51.00" y="27.00" incLanes="0712_0709_0" intLanes=":0709_0_0 :0709_1_0" shape="51.05,22.25 54.25,22.25 54.25,28.50 51.05,28.50 49.55,26.95 49.55,23.75">
        <request index="0" response="00" foes="00" cont="0"/>
        <request index="1" response="00" foes="00" cont="0"/>
    </junction>
    <junction id="0712" type="priority" x="51.00" y="36.00" incLanes="0715_0712_0" intLanes=":0712_0_0 :0712_1_0" shape="51.05,31.25 54.25,31.25 54.25,37.50 51.05,37.50 49.55,35.95 49.55,32.75">
        <request index="0" response="00" foes="00" cont="0"/>
        <request index="1" response="00" foes="00" cont="0"/>
    </junction>
    <junction id="0715" type="priority" x="51.00" y="45.00" incLanes="0718_0715_0" intLanes=":0715_0_0 :0715_1_0" shape="51.05,40.25 54.25,40.25 54.25,46.50 51.05,46.50 49.55,44.95 49.55,41.75">
        <request index="0" response="00" foes="00" cont="0"/>
        <request index="1" response="00" foes="00" cont="0"/>
    </junction>
    <junction id="0718" type="priority" x="51.00" y="54.00" incLanes="0018_0718_0" intLanes=":0718_0_0 :0718_1_0" shape="51.05,52.55 54.25,52.55 55.75,54.05 55.75,57.25 49.50,57.25 49.50,54.05">
        <request index="0" response="00" foes="00" cont="0"/>
        <request index="1" response="00" foes="00" cont="0"/>
    </junction>
    <junction id="0903" type="priority" x="57.00" y="9.00" incLanes="0906_0903_0 0203_0903_0" intLanes=":0903_0_0 :0903_1_0" shape="61.75,9.05 61.75,12.25 60.25,13.75 57.05,13.75 55.50,12.25 55.50,9.05">
        <request index="0" response="00" foes="10" cont="0"/>
        <request index="1" response="01" foes="01" cont="0"/>
    </junction>
    <junction id="0906" type="priority" x="57.00" y="18.00" incLanes="1106_0906_0 0909_0906_0" intLanes=":0906_0_0 :0906_1_0" shape="57.05,13.25 60.25,13.25 61.75,14.75 61.75,17.95 60.25,19.50 57.05,19.50">
        <request index="0" response="00" foes="10" cont="0"/>
        <request index="1" response="01" foes="01" cont="0"/>
    </junction>
    <junction id="0909" type="priority" x="57.00" y="27.00" incLanes="1109_0909_0 0912_0909_0" intLanes=":0909_0_0 :0909_1_0" shape="57.05,22.25 60.25,22.25 61.75,23.75 61.75,26.95 60.25,28.50 57.05,28.50">
        <request index="0" response="00" foes="10" cont="0"/>
        <request index="1" response="01" foes="01" cont="0"/>
    </junction>
    <junction id="0912" type="priority" x="57.00" y="36.00" incLanes="1112_0912_0 0915_0912_0" intLanes=":0912_0_0 :0912_1_0" shape="57.05,31.25 60.25,31.25 61.75,32.75 61.75,35.95 60.25,37.50 57.05,37.50">
        <request index="0" response="00" foes="10" cont="0"/>
        <request index="1" response="01" foes="01" cont="0"/>
    </junction>