<?xml version="1.0" encoding="UTF-8"?>

<!-- generated on Mon Oct 16 03:40:47 2017 by SUMO netgenerate Version 0.30.0
<?xml version="1.0" encoding="UTF-8"?>

<configuration xmlns:xsi="http://www.w3.org/2001/XMLSchema-instance" xsi:noNamespaceSchemaLocation="http://sumo.dlr.de/xsd/netgenerateConfiguration.xsd">

    <grid_network>
        <grid value="true"/>
        <grid.number value="10"/>
        <grid.length value="100"/>
    </grid_network>

    <output>
        <output-file value="manhattan.net.xml"/>
    </output>

    <tls_building>
        <tls.guess value="true"/>
    </tls_building>

    <building_defaults>
        <default.lanenumber value="2"/>
        <default.speed value="11.111"/>
    </building_defaults>

</configuration>
-->

<net version="0.27" xmlns:xsi="http://www.w3.org/2001/XMLSchema-instance" xsi:noNamespaceSchemaLocation="http://sumo.dlr.de/xsd/net_file.xsd">

    <location netOffset="0.00,0.00" convBoundary="0.00,0.00,900.00,900.00" origBoundary="0.00,0.00,900.00,900.00" projParameter="!"/>

    <edge id=":0/0_0" function="internal">
        <lane id=":0/0_0_0" index="0" speed="11.11" length="15.89" shape="-4.95,6.55 -4.23,1.52 -2.08,-2.08 1.52,-4.23 6.55,-4.95"/>
        <lane id=":0/0_0_1" index="1" speed="11.11" length="15.89" shape="-1.65,6.55 -1.14,2.96 0.40,0.40 2.96,-1.14 6.55,-1.65"/>
    </edge>
    <edge id=":0/0_2" function="internal">
        <lane id=":0/0_2_0" index="0" speed="11.11" length="2.69" shape="-1.65,6.55 -0.82,5.31 0.00,4.90 0.25,5.03"/>
    </edge>
    <edge id=":0/0_6" function="internal">
        <lane id=":0/0_6_0" index="0" speed="11.11" length="2.13" shape="0.25,5.03 0.83,5.31 1.65,6.55"/>
    </edge>
    <edge id=":0/0_3" function="internal">
        <lane id=":0/0_3_0" index="0" speed="11.11" length="5.24" shape="6.55,4.95 5.85,5.05 5.35,5.35 5.05,5.85 4.95,6.55"/>
        <lane id=":0/0_3_1" index="1" speed="11.11" length="5.24" shape="6.55,1.65 4.41,1.96 2.88,2.87 1.96,4.41 1.65,6.55"/>
    </edge>
    <edge id=":0/0_5" function="internal">
        <lane id=":0/0_5_0" index="0" speed="11.11" length="2.20" shape="6.55,1.65 5.31,0.82 4.99,0.19"/>
    </edge>
    <edge id=":0/0_7" function="internal">
        <lane id=":0/0_7_0" index="0" speed="11.11" length="2.62" shape="4.99,0.19 4.90,-0.00 5.31,-0.83 6.55,-1.65"/>
    </edge>
    <edge id=":0/1_0" function="internal">
        <lane id=":0/1_0_0" index="0" speed="11.11" length="16.10" shape="-4.95,108.05 -4.95,91.95"/>
        <lane id=":0/1_0_1" index="1" speed="11.11" length="16.10" shape="-1.65,108.05 -1.65,91.95"/>
    </edge>
    <edge id=":0/1_2" function="internal">
        <lane id=":0/1_2_0" index="0" speed="11.11" length="6.41" shape="-1.65,108.05 -1.04,103.81 0.05,101.98"/>
    </edge>
    <edge id=":0/1_3" function="internal">
        <lane id=":0/1_3_0" index="0" speed="11.11" length="2.41" shape="-1.65,108.05 -0.83,106.81 0.00,106.40"/>
    </edge>
    <edge id=":0/1_11" function="internal">
        <lane id=":0/1_11_0" index="0" speed="11.11" length="9.23" shape="0.05,101.98 0.77,100.78 3.81,98.96 8.05,98.35"/>
    </edge>
    <edge id=":0/1_12" function="internal">
        <lane id=":0/1_12_0" index="0" speed="11.11" length="2.41" shape="0.00,106.40 0.83,106.81 1.65,108.05"/>
    </edge>
    <edge id=":0/1_4" function="internal">
        <lane id=":0/1_4_0" index="0" speed="11.11" length="5.00" shape="8.05,104.95 6.69,105.14 5.72,105.72 5.14,106.69 4.95,108.05"/>
    </edge>
    <edge id=":0/1_5" function="internal">
        <lane id=":0/1_5_0" index="0" speed="11.11" length="15.64" shape="8.05,101.65 3.81,101.04 0.77,99.23 -1.04,96.19 -1.65,91.95"/>
    </edge>
    <edge id=":0/1_6" function="internal">
        <lane id=":0/1_6_0" index="0" speed="11.11" length="2.41" shape="8.05,101.65 6.81,100.82 6.40,100.00"/>
    </edge>
    <edge id=":0/1_13" function="internal">
        <lane id=":0/1_13_0" index="0" speed="11.11" length="2.41" shape="6.40,100.00 6.81,99.17 8.05,98.35"/>
    </edge>
    <edge id=":0/1_7" function="internal">
        <lane id=":0/1_7_0" index="0" speed="11.11" length="5.00" shape="4.95,91.95 5.14,93.31 5.72,94.27 6.69,94.86 8.05,95.05"/>
    </edge>
    <edge id=":0/1_8" function="internal">
        <lane id=":0/1_8_0" index="0" speed="11.11" length="16.10" shape="4.95,91.95 4.95,108.05"/>
        <lane id=":0/1_8_1" index="1" speed="11.11" length="16.10" shape="1.65,91.95 1.65,108.05"/>
    </edge>
    <edge id=":0/1_10" function="internal">
        <lane id=":0/1_10_0" index="0" speed="11.11" length="2.41" shape="1.65,91.95 0.83,93.19 0.00,93.60"/>
    </edge>
    <edge id=":0/1_14" function="internal">
        <lane id=":0/1_14_0" index="0" speed="11.11" length="2.41" shape="0.00,93.60 -0.83,93.19 -1.65,91.95"/>
    </edge>
    <edge id=":0/2_0" function="internal">
        <lane id=":0/2_0_0" index="0" speed="11.11" length="16.10" shape="-4.95,208.05 -4.95,191.95"/>
        <lane id=":0/2_0_1" index="1" speed="11.11" length="16.10" shape="-1.65,208.05 -1.65,191.95"/>
    </edge>
    <edge id=":0/2_2" function="internal">
        <lane id=":0/2_2_0" index="0" speed="11.11" length="6.41" shape="-1.65,208.05 -1.04,203.81 0.05,201.98"/>
    </edge>
    <edge id=":0/2_3" function="internal">
        <lane id=":0/2_3_0" index="0" speed="11.11" length="2.41" shape="-1.65,208.05 -0.83,206.81 0.00,206.40"/>
    </edge>
    <edge id=":0/2_11" function="internal">
        <lane id=":0/2_11_0" index="0" speed="11.11" length="9.23" shape="0.05,201.98 0.77,200.78 3.81,198.96 8.05,198.35"/>
    </edge>
    <edge id=":0/2_12" function="internal">
        <lane id=":0/2_12_0" index="0" speed="11.11" length="2.41" shape="0.00,206.40 0.83,206.81 1.65,208.05"/>
    </edge>
    <edge id=":0/2_4" function="internal">
        <lane id=":0/2_4_0" index="0" speed="11.11" length="5.00" shape="8.05,204.95 6.69,205.14 5.72,205.72 5.14,206.69 4.95,208.05"/>
    </edge>
    <edge id=":0/2_5" function="internal">
        <lane id=":0/2_5_0" index="0" speed="11.11" length="15.64" shape="8.05,201.65 3.81,201.04 0.77,199.23 -1.04,196.19 -1.65,191.95"/>
    </edge>
    <edge id=":0/2_6" function="internal">
        <lane id=":0/2_6_0" index="0" speed="11.11" length="2.41" shape="8.05,201.65 6.81,200.83 6.40,200.00"/>
    </edge>
    <edge id=":0/2_13" function="internal">
        <lane id=":0/2_13_0" index="0" speed="11.11" length="2.41" shape="6.40,200.00 6.81,199.18 8.05,198.35"/>
    </edge>
    <edge id=":0/2_7" function="internal">
        <lane id=":0/2_7_0" index="0" speed="11.11" length="5.00" shape="4.95,191.95 5.14,193.31 5.72,194.28 6.69,194.86 8.05,195.05"/>
    </edge>
    <edge id=":0/2_8" function="internal">
        <lane id=":0/2_8_0" index="0" speed="11.11" length="16.10" shape="4.95,191.95 4.95,208.05"/>
        <lane id=":0/2_8_1" index="1" speed="11.11" length="16.10" shape="1.65,191.95 1.65,208.05"/>
    </edge>
    <edge id=":0/2_10" function="internal">
        <lane id=":0/2_10_0" index="0" speed="11.11" length="2.41" shape="1.65,191.95 0.83,193.19 0.00,193.60"/>
    </edge>
    <edge id=":0/2_14" function="internal">
        <lane id=":0/2_14_0" index="0" speed="11.11" length="2.41" shape="0.00,193.60 -0.83,193.19 -1.65,191.95"/>
    </edge>
    <edge id=":0/3_0" function="internal">
        <lane id=":0/3_0_0" index="0" speed="11.11" length="16.10" shape="-4.95,308.05 -4.95,291.95"/>
        <lane id=":0/3_0_1" index="1" speed="11.11" length="16.10" shape="-1.65,308.05 -1.65,291.95"/>
    </edge>
    <edge id=":0/3_2" function="internal">
        <lane id=":0/3_2_0" index="0" speed="11.11" length="6.41" shape="-1.65,308.05 -1.04,303.81 0.05,301.98"/>
    </edge>
    <edge id=":0/3_3" function="internal">
        <lane id=":0/3_3_0" index="0" speed="11.11" length="2.41" shape="-1.65,308.05 -0.83,306.81 0.00,306.40"/>
    </edge>
    <edge id=":0/3_11" function="internal">
        <lane id=":0/3_11_0" index="0" speed="11.11" length="9.23" shape="0.05,301.98 0.77,300.77 3.81,298.96 8.05,298.35"/>
    </edge>
    <edge id=":0/3_12" function="internal">
        <lane id=":0/3_12_0" index="0" speed="11.11" length="2.41" shape="0.00,306.40 0.83,306.81 1.65,308.05"/>
    </edge>
    <edge id=":0/3_4" function="internal">
        <lane id=":0/3_4_0" index="0" speed="11.11" length="5.00" shape="8.05,304.95 6.69,305.14 5.72,305.72 5.14,306.69 4.95,308.05"/>
    </edge>
    <edge id=":0/3_5" function="internal">
        <lane id=":0/3_5_0" index="0" speed="11.11" length="15.64" shape="8.05,301.65 3.81,301.04 0.77,299.22 -1.04,296.19 -1.65,291.95"/>
    </edge>
    <edge id=":0/3_6" function="internal">
        <lane id=":0/3_6_0" index="0" speed="11.11" length="2.41" shape="8.05,301.65 6.81,300.83 6.40,300.00"/>
    </edge>
    <edge id=":0/3_13" function="internal">
        <lane id=":0/3_13_0" index="0" speed="11.11" length="2.41" shape="6.40,300.00 6.81,299.18 8.05,298.35"/>
    </edge>
    <edge id=":0/3_7" function="internal">
        <lane id=":0/3_7_0" index="0" speed="11.11" length="5.00" shape="4.95,291.95 5.14,293.31 5.72,294.27 6.69,294.86 8.05,295.05"/>
    </edge>
    <edge id=":0/3_8" function="internal">
        <lane id=":0/3_8_0" index="0" speed="11.11" length="16.10" shape="4.95,291.95 4.95,308.05"/>
        <lane id=":0/3_8_1" index="1" speed="11.11" length="16.10" shape="1.65,291.95 1.65,308.05"/>
    </edge>
    <edge id=":0/3_10" function="internal">
        <lane id=":0/3_10_0" index="0" speed="11.11" length="2.41" shape="1.65,291.95 0.83,293.19 0.00,293.60"/>
    </edge>
    <edge id=":0/3_14" function="internal">
        <lane id=":0/3_14_0" index="0" speed="11.11" length="2.41" shape="0.00,293.60 -0.83,293.19 -1.65,291.95"/>
    </edge>
    <edge id=":0/4_0" function="internal">
        <lane id=":0/4_0_0" index="0" speed="11.11" length="16.10" shape="-4.95,408.05 -4.95,391.95"/>
        <lane id=":0/4_0_1" index="1" speed="11.11" length="16.10" shape="-1.65,408.05 -1.65,391.95"/>
    </edge>
    <edge id=":0/4_2" function="internal">
        <lane id=":0/4_2_0" index="0" speed="11.11" length="6.41" shape="-1.65,408.05 -1.04,403.81 0.05,401.98"/>
    </edge>
    <edge id=":0/4_3" function="internal">
        <lane id=":0/4_3_0" index="0" speed="11.11" length="2.41" shape="-1.65,408.05 -0.83,406.81 0.00,406.40"/>
    </edge>
    <edge id=":0/4_11" function="internal">
        <lane id=":0/4_11_0" index="0" speed="11.11" length="9.23" shape="0.05,401.98 0.77,400.77 3.81,398.96 8.05,398.35"/>
    </edge>
    <edge id=":0/4_12" function="internal">
        <lane id=":0/4_12_0" index="0" speed="11.11" length="2.41" shape="0.00,406.40 0.83,406.81 1.65,408.05"/>
    </edge>
    <edge id=":0/4_4" function="internal">
        <lane id=":0/4_4_0" index="0" speed="11.11" length="5.00" shape="8.05,404.95 6.69,405.14 5.72,405.72 5.14,406.69 4.95,408.05"/>
    </edge>
    <edge id=":0/4_5" function="internal">
        <lane id=":0/4_5_0" index="0" speed="11.11" length="15.64" shape="8.05,401.65 3.81,401.04 0.77,399.22 -1.04,396.19 -1.65,391.95"/>
    </edge>
    <edge id=":0/4_6" function="internal">
        <lane id=":0/4_6_0" index="0" speed="11.11" length="2.41" shape="8.05,401.65 6.81,400.83 6.40,400.00"/>
    </edge>
    <edge id=":0/4_13" function="internal">
        <lane id=":0/4_13_0" index="0" speed="11.11" length="2.41" shape="6.40,400.00 6.81,399.18 8.05,398.35"/>
    </edge>
    <edge id=":0/4_7" function="internal">
        <lane id=":0/4_7_0" index="0" speed="11.11" length="5.00" shape="4.95,391.95 5.14,393.31 5.72,394.27 6.69,394.86 8.05,395.05"/>
    </edge>
    <edge id=":0/4_8" function="internal">
        <lane id=":0/4_8_0" index="0" speed="11.11" length="16.10" shape="4.95,391.95 4.95,408.05"/>
        <lane id=":0/4_8_1" index="1" speed="11.11" length="16.10" shape="1.65,391.95 1.65,408.05"/>
    </edge>
    <edge id=":0/4_10" function="internal">
        <lane id=":0/4_10_0" index="0" speed="11.11" length="2.41" shape="1.65,391.95 0.83,393.19 0.00,393.60"/>
    </edge>
    <edge id=":0/4_14" function="internal">
        <lane id=":0/4_14_0" index="0" speed="11.11" length="2.41" shape="0.00,393.60 -0.83,393.19 -1.65,391.95"/>
    </edge>
    <edge id=":0/5_0" function="internal">
        <lane id=":0/5_0_0" index="0" speed="11.11" length="16.10" shape="-4.95,508.05 -4.95,491.95"/>
        <lane id=":0/5_0_1" index="1" speed="11.11" length="16.10" shape="-1.65,508.05 -1.65,491.95"/>
    </edge>
    <edge id=":0/5_2" function="internal">
        <lane id=":0/5_2_0" index="0" speed="11.11" length="6.41" shape="-1.65,508.05 -1.04,503.81 0.05,501.98"/>
    </edge>
    <edge id=":0/5_3" function="internal">
        <lane id=":0/5_3_0" index="0" speed="11.11" length="2.41" shape="-1.65,508.05 -0.83,506.81 0.00,506.40"/>
    </edge>
    <edge id=":0/5_11" function="internal">
        <lane id=":0/5_11_0" index="0" speed="11.11" length="9.23" shape="0.05,501.98 0.77,500.77 3.81,498.96 8.05,498.35"/>
    </edge>
    <edge id=":0/5_12" function="internal">
        <lane id=":0/5_12_0" index="0" speed="11.11" length="2.41" shape="0.00,506.40 0.83,506.81 1.65,508.05"/>
    </edge>
    <edge id=":0/5_4" function="internal">
        <lane id=":0/5_4_0" index="0" speed="11.11" length="5.00" shape="8.05,504.95 6.69,505.14 5.72,505.72 5.14,506.69 4.95,508.05"/>
    </edge>
    <edge id=":0/5_5" function="internal">
        <lane id=":0/5_5_0" index="0" speed="11.11" length="15.64" shape="8.05,501.65 3.81,501.04 0.77,499.22 -1.04,496.19 -1.65,491.95"/>
    </edge>
    <edge id=":0/5_6" function="internal">
        <lane id=":0/5_6_0" index="0" speed="11.11" length="2.41" shape="8.05,501.65 6.81,500.82 6.40,500.00"/>
    </edge>
    <edge id=":0/5_13" function="internal">
        <lane id=":0/5_13_0" index="0" speed="11.11" length="2.41" shape="6.40,500.00 6.81,499.18 8.05,498.35"/>
    </edge>
    <edge id=":0/5_7" function="internal">
        <lane id=":0/5_7_0" index="0" speed="11.11" length="5.00" shape="4.95,491.95 5.14,493.31 5.72,494.27 6.69,494.86 8.05,495.05"/>
    </edge>
    <edge id=":0/5_8" function="internal">
        <lane id=":0/5_8_0" index="0" speed="11.11" length="16.10" shape="4.95,491.95 4.95,508.05"/>
        <lane id=":0/5_8_1" index="1" speed="11.11" length="16.10" shape="1.65,491.95 1.65,508.05"/>
    </edge>
    <edge id=":0/5_10" function="internal">
        <lane id=":0/5_10_0" index="0" speed="11.11" length="2.41" shape="1.65,491.95 0.83,493.19 0.00,493.60"/>
    </edge>
    <edge id=":0/5_14" function="internal">
        <lane id=":0/5_14_0" index="0" speed="11.11" length="2.41" shape="0.00,493.60 -0.83,493.19 -1.65,491.95"/>
    </edge>
    <edge id=":0/6_0" function="internal">
        <lane id=":0/6_0_0" index="0" speed="11.11" length="16.10" shape="-4.95,608.05 -4.95,591.95"/>
        <lane id=":0/6_0_1" index="1" speed="11.11" length="16.10" shape="-1.65,608.05 -1.65,591.95"/>
    </edge>
    <edge id=":0/6_2" function="internal">
        <lane id=":0/6_2_0" index="0" speed="11.11" length="6.41" shape="-1.65,608.05 -1.04,603.81 0.05,601.98"/>
    </edge>
    <edge id=":0/6_3" function="internal">
        <lane id=":0/6_3_0" index="0" speed="11.11" length="2.41" shape="-1.65,608.05 -0.83,606.81 0.00,606.40"/>
    </edge>
    <edge id=":0/6_11" function="internal">
        <lane id=":0/6_11_0" index="0" speed="11.11" length="9.23" shape="0.05,601.98 0.77,600.77 3.81,598.96 8.05,598.35"/>
    </edge>
    <edge id=":0/6_12" function="internal">
        <lane id=":0/6_12_0" index="0" speed="11.11" length="2.41" shape="0.00,606.40 0.83,606.81 1.65,608.05"/>
    </edge>
    <edge id=":0/6_4" function="internal">
        <lane id=":0/6_4_0" index="0" speed="11.11" length="5.00" shape="8.05,604.95 6.69,605.14 5.72,605.73 5.14,606.69 4.95,608.05"/>
    </edge>
    <edge id=":0/6_5" function="internal">
        <lane id=":0/6_5_0" index="0" speed="11.11" length="15.64" shape="8.05,601.65 3.81,601.04 0.77,599.22 -1.04,596.19 -1.65,591.95"/>
    </edge>
    <edge id=":0/6_6" function="internal">
        <lane id=":0/6_6_0" index="0" speed="11.11" length="2.41" shape="8.05,601.65 6.81,600.82 6.40,600.00"/>
    </edge>
    <edge id=":0/6_13" function="internal">
        <lane id=":0/6_13_0" index="0" speed="11.11" length="2.41" shape="6.40,600.00 6.81,599.17 8.05,598.35"/>
    </edge>
    <edge id=":0/6_7" function="internal">
        <lane id=":0/6_7_0" index="0" speed="11.11" length="5.00" shape="4.95,591.95 5.14,593.31 5.72,594.27 6.69,594.86 8.05,595.05"/>
    </edge>
    <edge id=":0/6_8" function="internal">
        <lane id=":0/6_8_0" index="0" speed="11.11" length="16.10" shape="4.95,591.95 4.95,608.05"/>
        <lane id=":0/6_8_1" index="1" speed="11.11" length="16.10" shape="1.65,591.95 1.65,608.05"/>
    </edge>
    <edge id=":0/6_10" function="internal">
        <lane id=":0/6_10_0" index="0" speed="11.11" length="2.41" shape="1.65,591.95 0.83,593.19 0.00,593.60"/>
    </edge>
    <edge id=":0/6_14" function="internal">
        <lane id=":0/6_14_0" index="0" speed="11.11" length="2.41" shape="0.00,593.60 -0.83,593.19 -1.65,591.95"/>
    </edge>
    <edge id=":0/7_0" function="internal">
        <lane id=":0/7_0_0" index="0" speed="11.11" length="16.10" shape="-4.95,708.05 -4.95,691.95"/>
        <lane id=":0/7_0_1" index="1" speed="11.11" length="16.10" shape="-1.65,708.05 -1.65,691.95"/>
    </edge>
    <edge id=":0/7_2" function="internal">
        <lane id=":0/7_2_0" index="0" speed="11.11" length="6.41" shape="-1.65,708.05 -1.04,703.81 0.05,701.98"/>
    </edge>
    <edge id=":0/7_3" function="internal">
        <lane id=":0/7_3_0" index="0" speed="11.11" length="2.41" shape="-1.65,708.05 -0.83,706.81 0.00,706.40"/>
    </edge>
    <edge id=":0/7_11" function="internal">
        <lane id=":0/7_11_0" index="0" speed="11.11" length="9.23" shape="0.05,701.98 0.77,700.77 3.81,698.96 8.05,698.35"/>
    </edge>
    <edge id=":0/7_12" function="internal">
        <lane id=":0/7_12_0" index="0" speed="11.11" length="2.41" shape="0.00,706.40 0.83,706.81 1.65,708.05"/>
    </edge>
    <edge id=":0/7_4" function="internal">
        <lane id=":0/7_4_0" index="0" speed="11.11" length="5.00" shape="8.05,704.95 6.69,705.14 5.72,705.73 5.14,706.69 4.95,708.05"/>
    </edge>
    <edge id=":0/7_5" function="internal">
        <lane id=":0/7_5_0" index="0" speed="11.11" length="15.64" shape="8.05,701.65 3.81,701.04 0.77,699.22 -1.04,696.19 -1.65,691.95"/>
    </edge>
    <edge id=":0/7_6" function="internal">
        <lane id=":0/7_6_0" index="0" speed="11.11" length="2.41" shape="8.05,701.65 6.81,700.82 6.40,700.00"/>
    </edge>
    <edge id=":0/7_13" function="internal">
        <lane id=":0/7_13_0" index="0" speed="11.11" length="2.41" shape="6.40,700.00 6.81,699.17 8.05,698.35"/>
    </edge>
    <edge id=":0/7_7" function="internal">
        <lane id=":0/7_7_0" index="0" speed="11.11" length="5.00" shape="4.95,691.95 5.14,693.31 5.72,694.27 6.69,694.86 8.05,695.05"/>
    </edge>
    <edge id=":0/7_8" function="internal">
        <lane id=":0/7_8_0" index="0" speed="11.11" length="16.10" shape="4.95,691.95 4.95,708.05"/>
        <lane id=":0/7_8_1" index="1" speed="11.11" length="16.10" shape="1.65,691.95 1.65,708.05"/>
    </edge>
    <edge id=":0/7_10" function="internal">
        <lane id=":0/7_10_0" index="0" speed="11.11" length="2.41" shape="1.65,691.95 0.83,693.19 0.00,693.60"/>
    </edge>
    <edge id=":0/7_14" function="internal">
        <lane id=":0/7_14_0" index="0" speed="11.11" length="2.41" shape="0.00,693.60 -0.83,693.19 -1.65,691.95"/>
    </edge>
    <edge id=":0/8_0" function="internal">
        <lane id=":0/8_0_0" index="0" speed="11.11" length="16.10" shape="-4.95,808.05 -4.95,791.95"/>
        <lane id=":0/8_0_1" index="1" speed="11.11" length="16.10" shape="-1.65,808.05 -1.65,791.95"/>
    </edge>
    <edge id=":0/8_2" function="internal">
        <lane id=":0/8_2_0" index="0" speed="11.11" length="6.41" shape="-1.65,808.05 -1.04,803.81 0.05,801.98"/>
    </edge>
    <edge id=":0/8_3" function="internal">
        <lane id=":0/8_3_0" index="0" speed="11.11" length="2.41" shape="-1.65,808.05 -0.83,806.81 0.00,806.40"/>
    </edge>
    <edge id=":0/8_11" function="internal">
        <lane id=":0/8_11_0" index="0" speed="11.11" length="9.23" shape="0.05,801.98 0.77,800.77 3.81,798.96 8.05,798.35"/>
    </edge>
    <edge id=":0/8_12" function="internal">
        <lane id=":0/8_12_0" index="0" speed="11.11" length="2.41" shape="0.00,806.40 0.83,806.81 1.65,808.05"/>
    </edge>
    <edge id=":0/8_4" function="internal">
        <lane id=":0/8_4_0" index="0" speed="11.11" length="5.00" shape="8.05,804.95 6.69,805.14 5.72,805.73 5.14,806.69 4.95,808.05"/>
    </edge>
    <edge id=":0/8_5" function="internal">
        <lane id=":0/8_5_0" index="0" speed="11.11" length="15.64" shape="8.05,801.65 3.81,801.04 0.77,799.22 -1.04,796.19 -1.65,791.95"/>
    </edge>
    <edge id=":0/8_6" function="internal">
        <lane id=":0/8_6_0" index="0" speed="11.11" length="2.41" shape="8.05,801.65 6.81,800.82 6.40,800.00"/>
    </edge>
    <edge id=":0/8_13" function="internal">
        <lane id=":0/8_13_0" index="0" speed="11.11" length="2.41" shape="6.40,800.00 6.81,799.17 8.05,798.35"/>
    </edge>
    <edge id=":0/8_7" function="internal">
        <lane id=":0/8_7_0" index="0" speed="11.11" length="5.00" shape="4.95,791.95 5.14,793.31 5.72,794.27 6.69,794.86 8.05,795.05"/>
    </edge>
    <edge id=":0/8_8" function="internal">
        <lane id=":0/8_8_0" index="0" speed="11.11" length="16.10" shape="4.95,791.95 4.95,808.05"/>
        <lane id=":0/8_8_1" index="1" speed="11.11" length="16.10" shape="1.65,791.95 1.65,808.05"/>
    </edge>
    <edge id=":0/8_10" function="internal">
        <lane id=":0/8_10_0" index="0" speed="11.11" length="2.41" shape="1.65,791.95 0.83,793.19 0.00,793.60"/>
    </edge>
    <edge id=":0/8_14" function="internal">
        <lane id=":0/8_14_0" index="0" speed="11.11" length="2.41" shape="0.00,793.60 -0.83,793.19 -1.65,791.95"/>
    </edge>
    <edge id=":0/9_0" function="internal">
        <lane id=":0/9_0_0" index="0" speed="11.11" length="15.89" shape="6.55,904.95 1.52,904.23 -2.08,902.08 -4.23,898.48 -4.95,893.45"/>
        <lane id=":0/9_0_1" index="1" speed="11.11" length="15.89" shape="6.55,901.65 2.96,901.14 0.40,899.60 -1.14,897.04 -1.65,893.45"/>
    </edge>
    <edge id=":0/9_2" function="internal">
        <lane id=":0/9_2_0" index="0" speed="11.11" length="2.69" shape="6.55,901.65 5.31,900.82 4.90,900.00 5.03,899.75"/>
    </edge>
    <edge id=":0/9_6" function="internal">
        <lane id=":0/9_6_0" index="0" speed="11.11" length="2.13" shape="5.03,899.75 5.31,899.17 6.55,898.35"/>
    </edge>
    <edge id=":0/9_3" function="internal">
        <lane id=":0/9_3_0" index="0" speed="11.11" length="5.24" shape="4.95,893.45 5.05,894.15 5.35,894.65 5.85,894.95 6.55,895.05"/>
        <lane id=":0/9_3_1" index="1" speed="11.11" length="5.24" shape="1.65,893.45 1.96,895.59 2.87,897.12 4.41,898.04 6.55,898.35"/>
    </edge>
    <edge id=":0/9_5" function="internal">
        <lane id=":0/9_5_0" index="0" speed="11.11" length="2.20" shape="1.65,893.45 0.83,894.69 0.19,895.01"/>
    </edge>
    <edge id=":0/9_7" function="internal">
        <lane id=":0/9_7_0" index="0" speed="11.11" length="2.62" shape="0.19,895.01 0.00,895.10 -0.83,894.69 -1.65,893.45"/>
    </edge>
    <edge id=":1/0_0" function="internal">
        <lane id=":1/0_0_0" index="0" speed="11.11" length="5.00" shape="95.05,8.05 94.86,6.69 94.28,5.72 93.31,5.14 91.95,4.95"/>
    </edge>
    <edge id=":1/0_1" function="internal">
        <lane id=":1/0_1_0" index="0" speed="11.11" length="15.64" shape="98.35,8.05 98.96,3.81 100.77,0.77 103.81,-1.04 108.05,-1.65"/>
    </edge>
    <edge id=":1/0_2" function="internal">
        <lane id=":1/0_2_0" index="0" speed="11.11" length="2.41" shape="98.35,8.05 99.18,6.81 100.00,6.40"/>
    </edge>
    <edge id=":1/0_11" function="internal">
        <lane id=":1/0_11_0" index="0" speed="11.11" length="2.41" shape="100.00,6.40 100.83,6.81 101.65,8.05"/>
    </edge>
    <edge id=":1/0_3" function="internal">
        <lane id=":1/0_3_0" index="0" speed="11.11" length="5.00" shape="108.05,4.95 106.69,5.14 105.72,5.72 105.14,6.69 104.95,8.05"/>
    </edge>
    <edge id=":1/0_4" function="internal">
        <lane id=":1/0_4_0" index="0" speed="11.11" length="16.10" shape="108.05,4.95 91.95,4.95"/>
        <lane id=":1/0_4_1" index="1" speed="11.11" length="16.10" shape="108.05,1.65 91.95,1.65"/>
    </edge>
    <edge id=":1/0_6" function="internal">
        <lane id=":1/0_6_0" index="0" speed="11.11" length="2.41" shape="108.05,1.65 106.81,0.83 106.40,0.00"/>
    </edge>
    <edge id=":1/0_12" function="internal">
        <lane id=":1/0_12_0" index="0" speed="11.11" length="2.41" shape="106.40,0.00 106.81,-0.83 108.05,-1.65"/>
    </edge>
    <edge id=":1/0_7" function="internal">
        <lane id=":1/0_7_0" index="0" speed="11.11" length="16.10" shape="91.95,-4.95 108.05,-4.95"/>
        <lane id=":1/0_7_1" index="1" speed="11.11" length="16.10" shape="91.95,-1.65 108.05,-1.65"/>
    </edge>
    <edge id=":1/0_9" function="internal">
        <lane id=":1/0_9_0" index="0" speed="11.11" length="6.41" shape="91.95,-1.65 96.19,-1.04 98.02,0.05"/>
    </edge>
    <edge id=":1/0_10" function="internal">
        <lane id=":1/0_10_0" index="0" speed="11.11" length="2.41" shape="91.95,-1.65 93.19,-0.83 93.60,0.00"/>
    </edge>
    <edge id=":1/0_13" function="internal">
        <lane id=":1/0_13_0" index="0" speed="11.11" length="9.23" shape="98.02,0.05 99.22,0.77 101.04,3.81 101.65,8.05"/>
    </edge>
    <edge id=":1/0_14" function="internal">
        <lane id=":1/0_14_0" index="0" speed="11.11" length="2.41" shape="93.60,0.00 93.19,0.83 91.95,1.65"/>
    </edge>
    <edge id=":1/1_0" function="internal">
        <lane id=":1/1_0_0" index="0" speed="11.11" length="5.00" shape="95.05,108.05 94.86,106.69 94.28,105.72 93.31,105.14 91.95,104.95"/>
    </edge>
    <edge id=":1/1_1" function="internal">
        <lane id=":1/1_1_0" index="0" speed="11.11" length="16.10" shape="95.05,108.05 95.05,91.95"/>
        <lane id=":1/1_1_1" index="1" speed="11.11" length="16.10" shape="98.35,108.05 98.35,91.95"/>
    </edge>
    <edge id=":1/1_3" function="internal">
        <lane id=":1/1_3_0" index="0" speed="11.11" length="6.41" shape="98.35,108.05 98.96,103.81 100.05,101.98"/>
    </edge>
    <edge id=":1/1_4" function="internal">
        <lane id=":1/1_4_0" index="0" speed="11.11" length="2.41" shape="98.35,108.05 99.18,106.81 100.00,106.40"/>
    </edge>
    <edge id=":1/1_20" function="internal">
        <lane id=":1/1_20_0" index="0" speed="11.11" length="9.23" shape="100.05,101.98 100.77,100.78 103.81,98.96 108.05,98.35"/>
    </edge>
    <edge id=":1/1_21" function="internal">
        <lane id=":1/1_21_0" index="0" speed="11.11" length="2.41" shape="100.00,106.40 100.83,106.81 101.65,108.05"/>
    </edge>
    <edge id=":1/1_5" function="internal">
        <lane id=":1/1_5_0" index="0" speed="11.11" length="5.00" shape="108.05,104.95 106.69,105.14 105.72,105.72 105.14,106.69 104.95,108.05"/>
    </edge>
    <edge id=":1/1_6" function="internal">
        <lane id=":1/1_6_0" index="0" speed="11.11" length="16.10" shape="108.05,104.95 91.95,104.95"/>
        <lane id=":1/1_6_1" index="1" speed="11.11" length="16.10" shape="108.05,101.65 91.95,101.65"/>
    </edge>
    <edge id=":1/1_8" function="internal">
        <lane id=":1/1_8_0" index="0" speed="11.11" length="6.41" shape="108.05,101.65 103.81,101.04 101.98,99.95"/>
    </edge>
    <edge id=":1/1_9" function="internal">
        <lane id=":1/1_9_0" index="0" speed="11.11" length="2.41" shape="108.05,101.65 106.81,100.82 106.40,100.00"/>
    </edge>
    <edge id=":1/1_22" function="internal">
        <lane id=":1/1_22_0" index="0" speed="11.11" length="9.23" shape="101.98,99.95 100.78,99.23 98.96,96.19 98.35,91.95"/>
    </edge>
    <edge id=":1/1_23" function="internal">
        <lane id=":1/1_23_0" index="0" speed="11.11" length="2.41" shape="106.40,100.00 106.81,99.17 108.05,98.35"/>
    </edge>
    <edge id=":1/1_10" function="internal">
        <lane id=":1/1_10_0" index="0" speed="11.11" length="5.00" shape="104.95,91.95 105.14,93.31 105.72,94.28 106.69,94.86 108.05,95.05"/>
    </edge>
    <edge id=":1/1_11" function="internal">
        <lane id=":1/1_11_0" index="0" speed="11.11" length="16.10" shape="104.95,91.95 104.95,108.05"/>
        <lane id=":1/1_11_1" index="1" speed="11.11" length="16.10" shape="101.65,91.95 101.65,108.05"/>
    </edge>
    <edge id=":1/1_13" function="internal">
        <lane id=":1/1_13_0" index="0" speed="11.11" length="6.41" shape="101.65,91.95 101.04,96.19 99.95,98.02"/>
    </edge>
    <edge id=":1/1_14" function="internal">
        <lane id=":1/1_14_0" index="0" speed="11.11" length="2.41" shape="101.65,91.95 100.82,93.19 100.00,93.60"/>
    </edge>
    <edge id=":1/1_24" function="internal">
        <lane id=":1/1_24_0" index="0" speed="11.11" length="9.23" shape="99.95,98.02 99.23,99.22 96.19,101.04 91.95,101.65"/>
    </edge>
    <edge id=":1/1_25" function="internal">
        <lane id=":1/1_25_0" index="0" speed="11.11" length="2.41" shape="100.00,93.60 99.17,93.19 98.35,91.95"/>
    </edge>
    <edge id=":1/1_15" function="internal">
        <lane id=":1/1_15_0" index="0" speed="11.11" length="5.00" shape="91.95,95.05 93.31,94.86 94.28,94.28 94.86,93.31 95.05,91.95"/>
    </edge>
    <edge id=":1/1_16" function="internal">
        <lane id=":1/1_16_0" index="0" speed="11.11" length="16.10" shape="91.95,95.05 108.05,95.05"/>
        <lane id=":1/1_16_1" index="1" speed="11.11" length="16.10" shape="91.95,98.35 108.05,98.35"/>
    </edge>
    <edge id=":1/1_18" function="internal">
        <lane id=":1/1_18_0" index="0" speed="11.11" length="6.41" shape="91.95,98.35 96.19,98.96 98.02,100.05"/>
    </edge>
    <edge id=":1/1_19" function="internal">